Version 4
SHEET 1 4136 1232
WIRE 640 144 640 112
WIRE 848 208 848 144
WIRE 640 256 640 208
WIRE 704 256 640 256
WIRE 800 256 768 256
WIRE 1056 256 976 256
WIRE 640 272 640 256
WIRE 1056 304 1024 304
WIRE 592 320 384 320
WIRE 816 320 816 304
WIRE 928 320 816 320
WIRE 816 336 816 320
WIRE 272 352 112 352
WIRE 320 352 272 352
WIRE 384 352 384 320
WIRE 1056 352 1056 304
WIRE 320 448 320 432
WIRE 320 448 240 448
WIRE 384 448 384 432
WIRE 432 448 384 448
WIRE 480 448 432 448
WIRE 608 448 608 368
WIRE 608 448 560 448
WIRE 816 448 816 400
WIRE 816 448 752 448
WIRE 944 448 944 368
WIRE 976 448 944 448
WIRE 1328 448 1328 432
WIRE 1328 448 1232 448
WIRE 320 464 320 448
WIRE 384 464 384 448
WIRE 240 480 240 448
WIRE 816 496 816 448
WIRE 608 528 608 448
WIRE 944 528 944 448
WIRE 272 576 272 352
WIRE 320 576 320 544
WIRE 320 576 272 576
WIRE 384 576 384 544
WIRE 592 576 384 576
WIRE 816 576 816 560
WIRE 928 576 816 576
WIRE 816 592 816 576
WIRE 1056 592 1056 544
WIRE 1056 592 1024 592
WIRE 640 640 640 624
WIRE 704 640 640 640
WIRE 800 640 768 640
WIRE 1056 640 976 640
WIRE 640 688 640 640
WIRE 848 752 848 688
WIRE 640 784 640 752
FLAG 848 144 Vpp
IOPIN 848 144 BiDir
FLAG 752 448 Vneg
IOPIN 752 448 BiDir
FLAG 848 752 Vpp
IOPIN 848 752 BiDir
FLAG 944 448 0
FLAG 1328 512 0
FLAG 1232 560 0
FLAG 1328 432 out
IOPIN 1328 432 Out
FLAG 80 48 0
FLAG 80 -32 Vpp
IOPIN 80 -32 BiDir
FLAG 160 -32 in
FLAG 160 48 0
FLAG -32 48 0
FLAG -32 -32 Vneg
IOPIN -32 -32 BiDir
FLAG 640 784 Vpp
IOPIN 640 784 BiDir
FLAG 112 352 in
FLAG 432 448 Vneg
IOPIN 432 448 BiDir
FLAG 640 112 Vpp
IOPIN 640 112 BiDir
FLAG 240 480 0
SYMBOL Tubes/6SN7 848 256 R0
SYMATTR InstName U1
SYMBOL r 816 336 R90
SYMATTR InstName R1
SYMATTR Value 26.6k
SYMBOL Tubes/6SN7 848 640 M180
SYMATTR InstName U4
SYMBOL r 816 560 M270
WINDOW 0 40 22 VRight 2
SYMATTR InstName R5
SYMATTR Value 26.6k
SYMBOL voltage 1072 448 R90
WINDOW 0 -32 56 VBottom 2
WINDOW 3 32 56 VTop 2
SYMATTR InstName V4
SYMATTR Value 430
SYMBOL r 1328 448 R90
SYMATTR InstName R6
SYMATTR Value 7
SYMBOL Trafos/P2647 1136 448 R0
SYMATTR InstName U5
SYMBOL NormanKoren/6L6GC 976 592 M180
SYMATTR InstName U8
SYMBOL NormanKoren/6L6GC 976 304 R0
SYMATTR InstName U6
SYMBOL voltage 80 -48 R0
SYMATTR InstName V5
SYMATTR Value 205
SYMBOL voltage 160 -48 R0
SYMATTR InstName V6
SYMATTR Value SINE(0 3.47 1k)
SYMATTR Value2 AC 1
SYMBOL voltage -32 -48 R0
SYMATTR InstName V7
SYMATTR Value -311
SYMBOL Tubes/6SN7 640 576 M180
SYMATTR InstName U2
SYMBOL Tubes/6SN7 640 320 R0
SYMATTR InstName U3
SYMBOL r 640 144 R90
SYMATTR InstName R2
SYMATTR Value 32250
SYMBOL r 640 752 R270
SYMATTR InstName R3
SYMATTR Value 32250
SYMBOL ind2 304 448 M180
WINDOW 0 36 80 Left 0
WINDOW 3 36 40 Left 0
SYMATTR InstName L2
SYMATTR Value 1
SYMATTR Type ind
SYMATTR SpiceLine Rser=50
SYMBOL ind2 400 560 R180
WINDOW 0 36 80 Left 0
WINDOW 3 36 40 Left 0
SYMATTR InstName L3
SYMATTR Value 1
SYMATTR Type ind
SYMATTR SpiceLine Rser=50
SYMBOL ind2 400 448 R180
WINDOW 0 36 80 Left 0
WINDOW 3 36 40 Left 0
SYMATTR InstName L4
SYMATTR Value 1
SYMATTR Type ind
SYMATTR SpiceLine Rser=50
SYMBOL current 560 448 R90
WINDOW 0 -32 40 VBottom 2
WINDOW 3 32 40 VTop 2
SYMATTR InstName I2
SYMATTR Value 16m
SYMBOL r 704 256 R0
SYMATTR InstName R4
SYMATTR Value 10k
SYMBOL r 704 640 R0
SYMATTR InstName R7
SYMATTR Value 10k
SYMBOL ind2 304 448 R0
SYMATTR InstName L1
SYMATTR Value 1
SYMATTR Type ind
SYMATTR SpiceLine Rser=50
TEXT -24 -168 Left 2 ;.tran 0 1 0.99
TEXT -32 -256 Left 2 !.OPTIONS numdgt=7\n.OPTIONS plotwinsize=0\n.four 1k 10 V(out)
TEXT -16 -312 Left 2 ;-50
TEXT 808 8 Left 2 !.ac dec 100 10 100meg
TEXT 328 -272 Left 2 ;Refazer tudo para \n- 430V no CT\n- -45 de grade\n- 6k6:7R ou 5k775\n- Essa saída ta com 50Vpk nas entradas \n- Resultado: 1.123% THD a 31,50WRMS
TEXT 216 312 Left 2 !k1 l1 l3 1
TEXT 216 336 Left 2 !k2 l2 l4 1
