Version 4
SHEET 1 1600 680
WIRE -624 -1056 -624 -1088
WIRE -368 -1056 -368 -1088
WIRE 704 -1024 704 -1088
WIRE 560 -976 496 -976
WIRE 656 -976 624 -976
WIRE 912 -976 832 -976
WIRE -624 -960 -624 -992
WIRE -576 -960 -624 -960
WIRE -48 -960 -512 -960
WIRE 96 -960 96 -992
WIRE 320 -960 320 -992
WIRE -368 -928 -368 -992
WIRE -336 -928 -368 -928
WIRE -64 -928 -272 -928
WIRE 912 -928 880 -928
WIRE 672 -912 672 -928
WIRE 784 -912 672 -912
WIRE -624 -896 -624 -960
WIRE -368 -896 -368 -928
WIRE 672 -896 672 -912
WIRE 96 -880 96 -896
WIRE 496 -880 496 -976
WIRE 496 -880 96 -880
WIRE 912 -880 912 -928
WIRE -800 -848 -832 -848
WIRE -768 -848 -800 -848
WIRE -672 -848 -704 -848
WIRE -416 -848 -432 -848
WIRE -240 -848 -320 -848
WIRE 320 -848 320 -896
WIRE 496 -848 320 -848
WIRE 96 -832 96 -880
WIRE 320 -832 320 -848
WIRE -800 -800 -800 -848
WIRE -240 -800 -240 -848
WIRE -48 -784 -48 -960
WIRE -32 -784 -48 -784
WIRE 48 -784 32 -784
WIRE 416 -784 368 -784
WIRE 672 -784 672 -832
WIRE 672 -784 608 -784
WIRE 800 -784 800 -864
WIRE 1184 -784 1184 -800
WIRE 1184 -784 1088 -784
WIRE -656 -768 -656 -800
WIRE -496 -768 -656 -768
WIRE -336 -768 -336 -800
WIRE -336 -768 -496 -768
WIRE -48 -768 -48 -784
WIRE 416 -752 416 -784
WIRE 672 -736 672 -784
WIRE 800 -704 800 -784
WIRE -800 -688 -800 -736
WIRE -656 -688 -800 -688
WIRE -48 -688 -48 -704
WIRE -240 -672 -240 -736
WIRE -96 -672 -240 -672
WIRE 672 -656 672 -672
WIRE 784 -656 672 -656
WIRE -656 -640 -656 -688
WIRE 672 -640 672 -656
WIRE 912 -640 912 -688
WIRE 912 -640 880 -640
WIRE -96 -624 -96 -672
WIRE 64 -624 64 -736
WIRE 352 -624 352 -736
WIRE 352 -624 64 -624
WIRE -64 -592 -64 -928
WIRE 416 -592 416 -688
WIRE 416 -592 -64 -592
WIRE 496 -592 496 -848
WIRE 560 -592 496 -592
WIRE 656 -592 624 -592
WIRE 912 -592 832 -592
WIRE -496 -576 -496 -768
WIRE 64 -560 64 -624
WIRE 416 -544 416 -592
WIRE -800 -528 -800 -688
WIRE -656 -528 -656 -576
WIRE -560 -528 -656 -528
WIRE -240 -512 -240 -672
WIRE -96 -512 -96 -560
WIRE 0 -512 -96 -512
WIRE -656 -480 -656 -528
WIRE 704 -480 704 -544
WIRE -96 -464 -96 -512
WIRE -496 -432 -496 -480
WIRE 416 -432 416 -480
WIRE 64 -416 64 -464
WIRE -656 -384 -656 -416
WIRE -560 -384 -656 -384
WIRE -96 -368 -96 -400
WIRE 0 -368 -96 -368
WIRE -656 -320 -656 -384
WIRE -96 -304 -96 -368
WIRE -496 -288 -496 -336
WIRE 64 -272 64 -320
WIRE -656 -240 -656 -256
WIRE -96 -224 -96 -240
WIRE -496 -192 -496 -224
WIRE 64 -176 64 -208
WIRE -656 -144 -656 -176
WIRE -96 -128 -96 -160
FLAG 704 -1088 Vpp
IOPIN 704 -1088 BiDir
FLAG 608 -784 Vneg
IOPIN 608 -784 BiDir
FLAG 704 -480 Vpp
IOPIN 704 -480 BiDir
FLAG 800 -784 0
FLAG 1184 -720 0
FLAG 1088 -672 0
FLAG 1184 -800 out
IOPIN 1184 -800 Out
FLAG 800 -80 0
FLAG 992 -160 in
FLAG 992 -80 0
FLAG 640 -80 0
FLAG 640 -160 Vneg
IOPIN 640 -160 BiDir
FLAG 320 -992 Vpp
IOPIN 320 -992 BiDir
FLAG 96 -992 Vpp
IOPIN 96 -992 BiDir
FLAG -624 -1088 Vpp
IOPIN -624 -1088 BiDir
FLAG -368 -1088 Vpp
IOPIN -368 -1088 BiDir
FLAG -240 -512 0
FLAG -800 -528 0
FLAG 64 -176 Vneg
IOPIN 64 -176 BiDir
FLAG 416 -432 Vneg
IOPIN 416 -432 BiDir
FLAG -96 -128 Vneg
IOPIN -96 -128 BiDir
FLAG -48 -688 Vneg
IOPIN -48 -688 BiDir
FLAG 480 -80 0
FLAG 480 -160 Vsink
IOPIN 480 -160 BiDir
FLAG -496 -192 Vsink
IOPIN -496 -192 BiDir
FLAG -656 -144 Vsink
IOPIN -656 -144 BiDir
FLAG 912 -784 B+
IOPIN 912 -784 BiDir
FLAG 304 -160 B+
IOPIN 304 -160 BiDir
FLAG 304 -80 0
FLAG 800 -160 Vpp
IOPIN 800 -160 BiDir
FLAG -832 -848 in
FLAG -800 -848 0
SYMBOL Tubes/6SN7 704 -976 R0
SYMATTR InstName U1
SYMBOL r 672 -896 R90
SYMATTR InstName R1
SYMATTR Value 26.6k
SYMBOL Tubes/6SN7 704 -592 M180
SYMATTR InstName U2
SYMBOL r 672 -672 M270
WINDOW 0 40 22 VRight 2
SYMATTR InstName R2
SYMATTR Value 26.6k
SYMBOL r 1184 -784 R90
SYMATTR InstName R3
SYMATTR Value 7
SYMBOL Trafos/P2647 992 -784 R0
SYMATTR InstName U3
SYMBOL NormanKoren/6L6GC 832 -640 M180
SYMATTR InstName U4
SYMBOL NormanKoren/6L6GC 832 -928 R0
SYMATTR InstName U5
SYMBOL voltage 800 -176 R0
SYMATTR InstName V2
SYMATTR Value 205
SYMBOL voltage 992 -176 R0
SYMATTR InstName V3
SYMATTR Value SINE(0 0.5490 1k 4.9 0 0)
SYMATTR Value2 AC 1
SYMBOL voltage 640 -176 R0
SYMATTR InstName V4
SYMATTR Value -310
SYMBOL Tubes/6SN7 320 -784 M0
SYMATTR InstName U6
SYMBOL Tubes/6SN7 96 -784 R0
SYMATTR InstName U7
SYMBOL r 96 -960 R90
SYMATTR InstName R4
SYMATTR Value 32250
SYMBOL r 320 -960 R90
SYMATTR InstName R5
SYMATTR Value 32250
SYMBOL r 560 -592 R0
SYMATTR InstName R6
SYMATTR Value 10k
SYMBOL r 624 -976 R180
SYMATTR InstName R7
SYMATTR Value 10k
SYMBOL Tubes/6SN7 -624 -848 R0
SYMATTR InstName U8
SYMBOL r -624 -992 M270
SYMATTR InstName R8
SYMATTR Value 15k
SYMBOL cap -576 -976 M90
WINDOW 0 0 32 VBottom 2
WINDOW 3 32 32 VTop 2
SYMATTR InstName C1
SYMATTR Value .1µ
SYMBOL r -48 -768 R90
SYMATTR InstName R9
SYMATTR Value 220k
SYMBOL Tubes/6SN7 -368 -848 M0
SYMATTR InstName U9
SYMBOL r -368 -992 R270
SYMATTR InstName R10
SYMATTR Value 15k
SYMBOL cap -272 -944 R90
WINDOW 0 0 32 VBottom 2
WINDOW 3 32 32 VTop 2
SYMATTR InstName C2
SYMATTR Value .1µ
SYMBOL r 416 -544 M90
SYMATTR InstName R11
SYMATTR Value 220k
SYMBOL r -800 -800 R90
SYMATTR InstName R12
SYMATTR Value 1Meg
SYMBOL r -96 -624 R90
SYMATTR InstName R13
SYMATTR Value 137k
SYMBOL r -96 -464 R90
SYMATTR InstName R14
SYMATTR Value 1k
SYMBOL r 64 -272 R90
SYMATTR InstName R15
SYMATTR Value 99.37
SYMBOL npn 16 -512 R0
SYMATTR InstName Q1
SYMATTR Value BC547C
SYMBOL npn 16 -368 R0
SYMATTR InstName Q2
SYMATTR Value BC547C
SYMBOL r -96 -304 R90
SYMATTR InstName R16
SYMATTR Value 129.79
SYMBOL r -656 -640 R90
SYMATTR InstName R17
SYMATTR Value 2.2k
SYMBOL r -656 -480 R90
SYMATTR InstName R18
SYMATTR Value 1k
SYMBOL r -496 -288 R90
SYMATTR InstName R19
SYMATTR Value 136.37
SYMBOL npn -544 -528 R0
SYMATTR InstName Q3
SYMATTR Value BC547C
SYMBOL npn -544 -384 R0
SYMATTR InstName Q4
SYMATTR Value BC547C
SYMBOL r -656 -320 R90
SYMATTR InstName R20
SYMATTR Value 0
SYMBOL voltage 480 -176 R0
SYMATTR InstName V5
SYMATTR Value -10
SYMBOL r -704 -848 R180
SYMATTR InstName R21
SYMATTR Value 10k
SYMBOL r -240 -736 R270
SYMATTR InstName R22
SYMATTR Value 10k
SYMBOL r 416 -752 R90
SYMATTR InstName R23
SYMATTR Value 10k
SYMBOL r -32 -784 R0
SYMATTR InstName R24
SYMATTR Value 10k
SYMBOL voltage 304 -176 R0
SYMATTR InstName V6
SYMATTR Value 430
SYMBOL diode -112 -224 R0
SYMATTR InstName D2
SYMATTR Value LedGreen
SYMBOL diode -672 -240 R0
SYMATTR InstName D1
SYMATTR Value LedGreen
TEXT -48 32 Left 2 !.MODEL LedGreen D (IS=93.2P RS=42M N=4.61 BV=4 IBV=10U CJO=2.97P VJ=.75 M=.333 TT=4.32U Iave=40m Vpk=4 type=LED)
TEXT 808 -296 Left 2 !.tran 0 5 4.9 10u
TEXT 800 -384 Left 2 !.OPTIONS numdgt=7\n.OPTIONS plotwinsize=0\n.four 1k 10 V(out)\n.four 1k 10 V(n004)
TEXT 800 -408 Left 2 ;.ac dec 100 10 100meg
TEXT 1160 -400 Left 2 ;Refazer tudo para \n- 430V no CT\n- -45 de grade\n- 6k6:7R ou 5k775\n- Essa saída ta com 50Vpk nas entradas \n- Resultado: 1.123% THD a 31,50WRMS
TEXT 1176 -256 Left 2 !.MODEL SFH4346 D	\n+	IS=	4.37E-14\n+	N=	1.806132146\n+	RS=	2.129475292\n+	IKF=	164.2918925\n+	IBV =	2.00E-07\n+	NBV =	105\n+	IBVL =	1.00E-06\n+	NBVL =	20\n+	BV =	28\n+	CJO =	1.67E-11\n+	TT =	8.00E-09\n+	EG =	1.3
TEXT 584 -264 Left 2 ;Total Harmonic Distortion: 0.762873%(0.767280%)
TEXT 600 -920 Left 2 ;-45V
TEXT 600 -656 Left 2 ;-45V
TEXT 168 -640 Left 2 ;-298V
TEXT -520 -784 Left 2 ;2.7V
TEXT 240 -48 Left 2 ;88mA med
TEXT 408 -48 Left 2 ;13.7mA med
TEXT 584 -48 Left 2 ;38mA med
TEXT 744 -48 Left 2 ;48mA med
TEXT -272 -832 VRight 2 ;Aqui so vai grid stopper, nao vai leak, SEM 1MEGA!!!!
TEXT -712 -1056 Left 2 ;trim com tapper em vpp. extremos em R8 e R9
TEXT -976 -320 Left 2 ;alteracao v(R19) com adicao de diodo
TEXT -56 -296 Left 2 ;idem
TEXT 768 -904 VRight 2 ;resistor catodo e grade
TEXT 64 -608 Left 2 ;trimpot balanco de corrente
