Version 4
SHEET 1 1116 924
WIRE 368 192 368 160
WIRE 64 240 64 208
WIRE 576 256 576 192
WIRE -240 288 -272 288
WIRE -160 288 -240 288
WIRE -16 288 -96 288
WIRE 368 304 368 256
WIRE 432 304 368 304
WIRE 528 304 496 304
WIRE 784 304 704 304
WIRE -16 320 -16 288
WIRE 368 320 368 304
WIRE -64 336 -96 336
WIRE 784 352 752 352
WIRE 64 368 64 304
WIRE 64 368 32 368
WIRE 96 368 64 368
WIRE 208 368 160 368
WIRE 320 368 208 368
WIRE 544 368 544 352
WIRE 656 368 544 368
WIRE -240 384 -240 288
WIRE 208 384 208 368
WIRE 544 384 544 368
WIRE -960 400 -960 368
WIRE -848 400 -848 368
WIRE 784 400 784 352
WIRE -240 496 -240 448
WIRE -240 496 -272 496
WIRE -96 496 -96 336
WIRE -96 496 -144 496
WIRE 208 496 208 448
WIRE 208 496 160 496
WIRE 336 496 336 416
WIRE 336 496 288 496
WIRE 544 496 544 448
WIRE 544 496 480 496
WIRE 672 496 672 416
WIRE 784 496 768 496
WIRE 1056 496 1056 480
WIRE 1056 496 960 496
WIRE -960 512 -960 480
WIRE -960 512 -992 512
WIRE -960 544 -960 512
WIRE -736 544 -736 368
WIRE -624 544 -624 368
WIRE -512 544 -512 368
WIRE 208 544 208 496
WIRE 544 544 544 496
WIRE -16 576 -16 560
WIRE 336 576 336 496
WIRE 672 576 672 496
WIRE 64 624 32 624
WIRE 96 624 64 624
WIRE 208 624 208 608
WIRE 208 624 160 624
WIRE 320 624 208 624
WIRE 544 624 544 608
WIRE 656 624 544 624
WIRE 544 640 544 624
WIRE 784 640 784 592
WIRE 784 640 752 640
WIRE -960 656 -960 624
WIRE -848 656 -848 480
WIRE -736 656 -736 624
WIRE -624 656 -624 624
WIRE -512 656 -512 624
WIRE -96 656 -96 496
WIRE -64 656 -96 656
WIRE 64 688 64 624
WIRE 368 688 368 672
WIRE 432 688 368 688
WIRE 528 688 496 688
WIRE 784 688 704 688
WIRE -240 704 -240 496
WIRE -160 704 -240 704
WIRE -16 704 -16 672
WIRE -16 704 -96 704
WIRE 368 736 368 688
WIRE 64 784 64 752
WIRE 576 800 576 736
WIRE 368 832 368 800
FLAG 576 192 Vpp
IOPIN 576 192 BiDir
FLAG 480 496 Vneg
IOPIN 480 496 BiDir
FLAG 576 800 Vpp
IOPIN 576 800 BiDir
FLAG 672 496 0
FLAG 1056 560 0
FLAG 960 608 0
FLAG 1056 480 out
IOPIN 1056 480 Out
FLAG -736 656 0
FLAG -624 368 Vpp
IOPIN -624 368 BiDir
FLAG -624 656 0
FLAG -960 656 0
FLAG -992 512 Vneg
IOPIN -992 512 BiDir
FLAG 368 832 Vpp
IOPIN 368 832 BiDir
FLAG 368 160 Vpp
IOPIN 368 160 BiDir
FLAG 64 208 Vpp
IOPIN 64 208 BiDir
FLAG 64 784 Vpp
IOPIN 64 784 BiDir
FLAG -272 496 0
FLAG -272 288 in
IOPIN -272 288 BiDir
FLAG -960 368 I2
IOPIN -960 368 BiDir
FLAG -848 656 0
FLAG -848 368 I1
IOPIN -848 368 BiDir
FLAG -512 656 0
FLAG -512 368 in
IOPIN -512 368 BiDir
FLAG -736 368 VB
IOPIN -736 368 BiDir
FLAG -144 496 I1
IOPIN -144 496 BiDir
FLAG 288 496 I2
IOPIN 288 496 BiDir
FLAG 768 496 VB
IOPIN 768 496 BiDir
FLAG 160 496 Vneg
IOPIN 160 496 BiDir
SYMBOL Tubes/6SN7 576 304 R0
SYMATTR InstName U1
SYMBOL r 544 384 R90
SYMATTR InstName R1
SYMATTR Value 26.6k
SYMBOL Tubes/6SN7 576 688 M180
SYMATTR InstName U2
SYMBOL r 544 608 M270
WINDOW 0 40 22 VRight 2
SYMATTR InstName R2
SYMATTR Value 26.6k
SYMBOL voltage -736 528 R0
SYMATTR InstName V1
SYMATTR Value 430
SYMBOL r 1056 496 R90
SYMATTR InstName R3
SYMATTR Value 7
SYMBOL Trafos/P2647 864 496 R0
SYMATTR InstName U3
SYMBOL NormanKoren/6L6GC 704 640 M180
SYMATTR InstName U4
SYMBOL NormanKoren/6L6GC 704 352 R0
SYMATTR InstName U5
SYMBOL voltage -624 528 R0
SYMATTR InstName V2
SYMATTR Value 205
SYMBOL voltage -512 528 R0
SYMATTR InstName V3
SYMATTR Value SINE(0 0.5490 1k)
SYMATTR Value2 AC 1
SYMBOL voltage -960 528 R0
SYMATTR InstName V4
SYMATTR Value -310
SYMBOL Tubes/6SN7 368 624 M180
SYMATTR InstName U6
SYMBOL Tubes/6SN7 368 368 R0
SYMATTR InstName U7
SYMBOL r 368 192 R90
SYMATTR InstName R4
SYMATTR Value 32250
SYMBOL r 368 800 R270
SYMATTR InstName R5
SYMATTR Value 32250
SYMBOL current -960 400 R0
SYMATTR InstName I1
SYMATTR Value 16m
SYMBOL r 432 304 R0
SYMATTR InstName R6
SYMATTR Value 10k
SYMBOL r 432 688 R0
SYMATTR InstName R7
SYMATTR Value 10k
SYMBOL Tubes/6SN7 -16 368 R90
SYMATTR InstName U8
SYMBOL r 64 304 R270
SYMATTR InstName R9
SYMATTR Value 15k
SYMBOL cap 160 352 R90
WINDOW 0 15 56 VBottom 2
WINDOW 3 -12 -1 VTop 2
SYMATTR InstName C2
SYMATTR Value 0.1µ
SYMBOL r 208 384 R90
SYMATTR InstName R11
SYMATTR Value 220k
SYMBOL Tubes/6SN7 -16 624 M270
SYMATTR InstName U10
SYMBOL r 64 688 M90
SYMATTR InstName R12
SYMATTR Value 15k
SYMBOL cap 160 640 M270
WINDOW 0 -11 56 VTop 2
WINDOW 3 18 -2 VBottom 2
SYMATTR InstName C3
SYMATTR Value 0.1µ
SYMBOL r 208 608 M270
SYMATTR InstName R13
SYMATTR Value 220k
SYMBOL current -848 400 R0
SYMATTR InstName I3
SYMATTR Value 12m
SYMBOL r -240 384 R90
SYMATTR InstName R8
SYMATTR Value 1Meg
SYMBOL r -160 288 R0
SYMATTR InstName R10
SYMATTR Value 10k
SYMBOL r -160 704 M180
SYMATTR InstName R14
SYMATTR Value 10k
TEXT 104 -512 Left 2 !.tran 0 1 0.99
TEXT 96 -600 Left 2 !.OPTIONS numdgt=7\n.OPTIONS plotwinsize=0\n.four 1k 10 V(out)
TEXT 112 -656 Left 2 ;-50
TEXT -368 -528 Left 2 ;.ac dec 100 10 100meg
TEXT -368 -656 Left 2 ;Refazer tudo para \n- 430V no CT\n- -45 de grade\n- 6k6:7R ou 5k775\n- Essa saída ta com 50Vpk nas entradas \n- Resultado: 1.123% THD a 31,50WRMS
TEXT 384 -608 Left 2 !.meas tran irms rms i(r3)\n.meas tran vrms rms v(out)\n.meas tran prms param irms*vrms
