Version 4
SHEET 1 1124 680
WIRE 256 224 176 224
WIRE 256 272 224 272
WIRE 128 288 -32 288
WIRE 256 320 256 272
WIRE -32 416 -32 368
WIRE 144 416 144 336
WIRE 144 416 -32 416
WIRE 176 416 144 416
WIRE 528 416 432 416
WIRE 528 432 528 416
WIRE -32 464 -32 416
WIRE 144 496 144 416
WIRE 128 544 -32 544
WIRE 256 560 256 512
WIRE 256 560 224 560
WIRE 256 608 176 608
FLAG 144 416 0
FLAG 528 496 0
FLAG 432 528 0
FLAG 528 416 out
IOPIN 528 416 Out
SYMBOL Trafos/P2647 336 416 R0
SYMATTR InstName U1
SYMBOL voltage 272 416 R90
WINDOW 0 -32 56 VBottom 2
WINDOW 3 32 56 VTop 2
SYMATTR InstName V1
SYMATTR Value {VA}
SYMBOL NormanKoren/6L6GC 176 272 R0
SYMATTR InstName U2
SYMBOL NormanKoren/6L6GC 176 560 M180
SYMATTR InstName U3
SYMBOL r 528 432 R90
SYMATTR InstName R1
SYMATTR Value 7
SYMBOL voltage -32 560 R180
WINDOW 0 24 96 Left 2
WINDOW 3 24 16 Left 2
SYMATTR InstName V2
SYMATTR Value SINE({VG} 50 1k 0 0 180)
SYMATTR Value2 AC 1
SYMBOL voltage -32 272 R0
SYMATTR InstName V3
SYMATTR Value SINE({VG} 50 1k)
SYMATTR Value2 AC 1
TEXT -616 344 Left 2 !.tran 0 3 2.99 10u
TEXT -616 368 Left 2 !.OPTIONS numdgt=7\n.OPTIONS plotwinsize=0\n.four 1k 10 v(OUT)
TEXT -616 240 Left 2 !.param VG -44\n.param VA 430\n.meas tran irms rms i(r1)\n.meas tran vrms rms v(out)\n.meas tran prms param irms*vrms
