Version 4
SHEET 1 4372 2464
WIRE -336 336 -336 304
WIRE -80 336 -80 304
WIRE 992 368 992 304
WIRE 848 416 784 416
WIRE 944 416 912 416
WIRE 1200 416 1120 416
WIRE -336 432 -336 400
WIRE -288 432 -336 432
WIRE 240 432 -224 432
WIRE 384 432 384 400
WIRE 608 432 608 400
WIRE -80 464 -80 400
WIRE -48 464 -80 464
WIRE 224 464 16 464
WIRE 1200 464 1168 464
WIRE 960 480 960 464
WIRE 1072 480 960 480
WIRE -336 496 -336 432
WIRE -80 496 -80 464
WIRE 960 496 960 480
WIRE 384 512 384 496
WIRE 784 512 784 416
WIRE 784 512 384 512
WIRE 1200 512 1200 464
WIRE -512 544 -544 544
WIRE -480 544 -512 544
WIRE -384 544 -416 544
WIRE -128 544 -144 544
WIRE 48 544 -32 544
WIRE 608 544 608 496
WIRE 784 544 608 544
WIRE 384 560 384 512
WIRE 608 560 608 544
WIRE -512 592 -512 544
WIRE 48 592 48 544
WIRE 240 608 240 432
WIRE 256 608 240 608
WIRE 336 608 320 608
WIRE 704 608 656 608
WIRE 960 608 960 560
WIRE 960 608 896 608
WIRE 1088 608 1088 528
WIRE 1472 608 1472 592
WIRE 1472 608 1376 608
WIRE -368 624 -368 592
WIRE -208 624 -368 624
WIRE -48 624 -48 592
WIRE -48 624 -208 624
WIRE 240 624 240 608
WIRE 704 640 704 608
WIRE 960 656 960 608
WIRE 1088 688 1088 608
WIRE -512 704 -512 656
WIRE -368 704 -512 704
WIRE 240 704 240 688
WIRE 48 720 48 656
WIRE 192 720 48 720
WIRE 960 736 960 720
WIRE 1072 736 960 736
WIRE -368 752 -368 704
WIRE 960 752 960 736
WIRE 1200 752 1200 704
WIRE 1200 752 1168 752
WIRE 192 768 192 720
WIRE 352 768 352 656
WIRE 640 768 640 656
WIRE 640 768 352 768
WIRE 224 800 224 464
WIRE 704 800 704 704
WIRE 704 800 224 800
WIRE 784 800 784 544
WIRE 848 800 784 800
WIRE 944 800 912 800
WIRE 1200 800 1120 800
WIRE -208 816 -208 624
WIRE 352 832 352 768
WIRE 704 848 704 800
WIRE -512 864 -512 704
WIRE -368 864 -368 816
WIRE -272 864 -368 864
WIRE 48 880 48 720
WIRE 192 880 192 832
WIRE 288 880 192 880
WIRE -368 912 -368 864
WIRE 992 912 992 848
WIRE 192 928 192 880
WIRE -208 960 -208 912
WIRE 704 960 704 912
WIRE 352 976 352 928
WIRE -368 1008 -368 976
WIRE -272 1008 -368 1008
WIRE 192 1024 192 992
WIRE 288 1024 192 1024
WIRE -368 1072 -368 1008
WIRE 192 1088 192 1024
WIRE -208 1104 -208 1056
WIRE 352 1120 352 1072
WIRE -368 1152 -368 1136
WIRE 192 1168 192 1152
WIRE -208 1200 -208 1168
WIRE 352 1216 352 1184
WIRE -368 1248 -368 1216
WIRE 192 1264 192 1232
FLAG 992 304 Vpp
IOPIN 992 304 BiDir
FLAG 896 608 Vneg
IOPIN 896 608 BiDir
FLAG 992 912 Vpp
IOPIN 992 912 BiDir
FLAG 1088 608 0
FLAG 1472 672 0
FLAG 1376 720 0
FLAG 1472 592 out
IOPIN 1472 592 Out
FLAG 1088 1312 0
FLAG 1280 1232 in
FLAG 928 1312 0
FLAG 928 1232 Vneg
IOPIN 928 1232 BiDir
FLAG 608 400 Vpp
IOPIN 608 400 BiDir
FLAG 384 400 Vpp
IOPIN 384 400 BiDir
FLAG -336 304 Vpp
IOPIN -336 304 BiDir
FLAG -80 304 Vpp
IOPIN -80 304 BiDir
FLAG 48 880 0
FLAG -512 864 0
FLAG 352 1216 Vneg
IOPIN 352 1216 BiDir
FLAG 704 960 Vneg
IOPIN 704 960 BiDir
FLAG 192 1264 Vneg
IOPIN 192 1264 BiDir
FLAG 240 704 Vneg
IOPIN 240 704 BiDir
FLAG 768 1312 0
FLAG 768 1232 Vsink
IOPIN 768 1232 BiDir
FLAG -208 1200 Vsink
IOPIN -208 1200 BiDir
FLAG -368 1248 Vsink
IOPIN -368 1248 BiDir
FLAG 1200 608 B+
IOPIN 1200 608 BiDir
FLAG 592 1232 B+
IOPIN 592 1232 BiDir
FLAG 592 1312 0
FLAG 1088 1232 Vpp
IOPIN 1088 1232 BiDir
FLAG -544 544 in
FLAG 1280 1312 0
SYMBOL Tubes/6SN7 992 416 R0
SYMATTR InstName U1
SYMBOL r 960 496 R90
SYMATTR InstName R1
SYMATTR Value 26.6k
SYMBOL Tubes/6SN7 992 800 M180
SYMATTR InstName U2
SYMBOL r 960 720 M270
WINDOW 0 40 22 VRight 2
SYMATTR InstName R2
SYMATTR Value 26.6k
SYMBOL r 1472 608 R90
SYMATTR InstName R3
SYMATTR Value 7
SYMBOL Trafos/P2647 1280 608 R0
SYMATTR InstName U3
SYMBOL NormanKoren/6L6GC 1120 752 M180
SYMATTR InstName U4
SYMBOL NormanKoren/6L6GC 1120 464 R0
SYMATTR InstName U5
SYMBOL voltage 1088 1216 R0
SYMATTR InstName V2
SYMATTR Value 205
SYMBOL voltage 1280 1216 R0
SYMATTR InstName V3
SYMATTR Value SINE(0 0.5490 1k 4.9 0 0)
SYMATTR Value2 AC 1
SYMBOL voltage 928 1216 R0
SYMATTR InstName V4
SYMATTR Value -310
SYMBOL Tubes/6SN7 608 608 M0
SYMATTR InstName U6
SYMBOL Tubes/6SN7 384 608 R0
SYMATTR InstName U7
SYMBOL r 384 432 R90
SYMATTR InstName R4
SYMATTR Value 32250
SYMBOL r 608 432 R90
SYMATTR InstName R5
SYMATTR Value 32250
SYMBOL r 848 800 R0
SYMATTR InstName R6
SYMATTR Value 10k
SYMBOL r 912 416 R180
SYMATTR InstName R7
SYMATTR Value 10k
SYMBOL Tubes/6SN7 -336 544 R0
SYMATTR InstName U8
SYMBOL r -336 400 M270
SYMATTR InstName R8
SYMATTR Value 15k
SYMBOL cap -288 416 M90
WINDOW 0 0 32 VBottom 2
WINDOW 3 32 32 VTop 2
SYMATTR InstName C1
SYMATTR Value .1µ
SYMBOL r 240 624 R90
SYMATTR InstName R9
SYMATTR Value 220k
SYMBOL Tubes/6SN7 -80 544 M0
SYMATTR InstName U9
SYMBOL r -80 400 R270
SYMATTR InstName R10
SYMATTR Value 15k
SYMBOL cap 16 448 R90
WINDOW 0 0 32 VBottom 2
WINDOW 3 32 32 VTop 2
SYMATTR InstName C2
SYMATTR Value .1µ
SYMBOL r 704 848 M90
SYMATTR InstName R11
SYMATTR Value 220k
SYMBOL r -512 592 R90
SYMATTR InstName R12
SYMATTR Value 1Meg
SYMBOL LED 176 1168 R0
SYMATTR InstName D1
SYMATTR Value SFH4346
SYMBOL r 192 768 R90
SYMATTR InstName R13
SYMATTR Value 137k
SYMBOL r 192 928 R90
SYMATTR InstName R14
SYMATTR Value 820
SYMBOL r 352 1120 R90
SYMATTR InstName R15
SYMATTR Value 33.37
SYMBOL npn 304 880 R0
SYMATTR InstName Q1
SYMATTR Value BC547C
SYMBOL npn 304 1024 R0
SYMATTR InstName Q2
SYMATTR Value BC547C
SYMBOL r 192 1088 R90
SYMATTR InstName R16
SYMATTR Value 37.6
SYMBOL LED -384 1152 R0
SYMATTR InstName D2
SYMATTR Value SFH4346
SYMBOL r -368 752 R90
SYMATTR InstName R17
SYMATTR Value 4.3k
SYMBOL r -368 912 R90
SYMATTR InstName R18
SYMATTR Value 1k
SYMBOL r -208 1104 R90
SYMATTR InstName R19
SYMATTR Value 42.22
SYMBOL npn -256 864 R0
SYMATTR InstName Q3
SYMATTR Value BC547C
SYMBOL npn -256 1008 R0
SYMATTR InstName Q4
SYMATTR Value BC547C
SYMBOL r -368 1072 R90
SYMATTR InstName R20
SYMATTR Value 38.8
SYMBOL voltage 768 1216 R0
SYMATTR InstName V5
SYMATTR Value -10
SYMBOL r -416 544 R180
SYMATTR InstName R21
SYMATTR Value 10k
SYMBOL r 48 656 R270
SYMATTR InstName R22
SYMATTR Value 10k
SYMBOL r 704 640 R90
SYMATTR InstName R23
SYMATTR Value 10k
SYMBOL r 256 608 R0
SYMATTR InstName R24
SYMATTR Value 10k
SYMBOL voltage 592 1216 R0
SYMATTR InstName V7
SYMATTR Value 430
TEXT 1096 1096 Left 2 !.tran 0 5 4.9 10u
TEXT 1088 1008 Left 2 !.OPTIONS numdgt=7\n.OPTIONS plotwinsize=0\n.four 1k 10 V(out)\n.four 1k 10 V(n004)
TEXT 1088 984 Left 2 ;.ac dec 100 10 100meg
TEXT 1448 992 Left 2 ;Refazer tudo para \n- 430V no CT\n- -45 de grade\n- 6k6:7R ou 5k775\n- Essa saída ta com 50Vpk nas entradas \n- Resultado: 1.123% THD a 31,50WRMS
TEXT 1464 1136 Left 2 !.MODEL SFH4346 D	\n+	IS=	4.37E-14\n+	N=	1.806132146\n+	RS=	2.129475292\n+	IKF=	164.2918925\n+	IBV =	2.00E-07\n+	NBV =	105\n+	IBVL =	1.00E-06\n+	NBVL =	20\n+	BV =	28\n+	CJO =	1.67E-11\n+	TT =	8.00E-09\n+	EG =	1.3
TEXT 872 1128 Left 2 ;Total Harmonic Distortion: 0.762873%(0.767280%)
TEXT 888 472 Left 2 ;-45V
TEXT 888 736 Left 2 ;-45V
TEXT 456 752 Left 2 ;-298V
TEXT -232 608 Left 2 ;2.7V
TEXT 528 1344 Left 2 ;88mA med
TEXT 696 1344 Left 2 ;13.7mA med
TEXT 872 1344 Left 2 ;38mA med
TEXT 1032 1344 Left 2 ;48mA med
TEXT 16 560 VRight 2 ;Aqui so vai grid stopper, nao vai leak, SEM 1MEGA!!!!
TEXT -424 336 Left 2 ;trim com tapper em vpp. extremos em R8 e R9
TEXT -688 1072 Left 2 ;alteracao v(R19) com adicao de diodo
TEXT 232 1096 Left 2 ;idem
TEXT 1056 488 VRight 2 ;resistor catodo e grade
TEXT 352 784 Left 2 ;trimpot balanco de corrente
TEXT 1088 880 Left 2 !.meas tran irms rms i(r3)\n.meas tran vrms rms v(out)\n.meas tran prms param irms*vrms
