Version 4
SHEET 1 1352 680
WIRE -880 -800 -880 -832
WIRE -624 -800 -624 -832
WIRE 448 -768 448 -832
WIRE 304 -720 240 -720
WIRE 400 -720 368 -720
WIRE 656 -720 576 -720
WIRE -880 -704 -880 -736
WIRE -832 -704 -880 -704
WIRE -304 -704 -768 -704
WIRE -160 -704 -160 -736
WIRE 64 -704 64 -736
WIRE -624 -672 -624 -736
WIRE -592 -672 -624 -672
WIRE -320 -672 -528 -672
WIRE 656 -672 624 -672
WIRE 416 -656 416 -672
WIRE 528 -656 416 -656
WIRE -880 -640 -880 -704
WIRE -624 -640 -624 -672
WIRE 416 -640 416 -656
WIRE -160 -624 -160 -640
WIRE 240 -624 240 -720
WIRE 240 -624 -160 -624
WIRE 656 -624 656 -672
WIRE -1056 -592 -1088 -592
WIRE -1024 -592 -1056 -592
WIRE -928 -592 -960 -592
WIRE -672 -592 -688 -592
WIRE -496 -592 -576 -592
WIRE 64 -592 64 -640
WIRE 240 -592 64 -592
WIRE -160 -576 -160 -624
WIRE 64 -576 64 -592
WIRE -1056 -544 -1056 -592
WIRE -496 -544 -496 -592
WIRE -304 -528 -304 -704
WIRE -288 -528 -304 -528
WIRE -208 -528 -224 -528
WIRE 160 -528 112 -528
WIRE 416 -528 416 -576
WIRE 416 -528 352 -528
WIRE 544 -528 544 -608
WIRE 928 -528 928 -544
WIRE 928 -528 832 -528
WIRE -912 -512 -912 -544
WIRE -752 -512 -912 -512
WIRE -592 -512 -592 -544
WIRE -592 -512 -752 -512
WIRE -304 -512 -304 -528
WIRE 160 -496 160 -528
WIRE 416 -480 416 -528
WIRE 544 -448 544 -528
WIRE -1056 -432 -1056 -480
WIRE -912 -432 -1056 -432
WIRE -304 -432 -304 -448
WIRE -496 -416 -496 -480
WIRE -352 -416 -496 -416
WIRE 416 -400 416 -416
WIRE 528 -400 416 -400
WIRE -912 -384 -912 -432
WIRE 416 -384 416 -400
WIRE 656 -384 656 -432
WIRE 656 -384 624 -384
WIRE -352 -368 -352 -416
WIRE -192 -368 -192 -480
WIRE 96 -368 96 -480
WIRE 96 -368 -192 -368
WIRE -320 -336 -320 -672
WIRE 160 -336 160 -432
WIRE 160 -336 -320 -336
WIRE 240 -336 240 -592
WIRE 304 -336 240 -336
WIRE 400 -336 368 -336
WIRE 656 -336 576 -336
WIRE -752 -320 -752 -512
WIRE -192 -304 -192 -368
WIRE 160 -288 160 -336
WIRE -1056 -272 -1056 -432
WIRE -912 -272 -912 -320
WIRE -816 -272 -912 -272
WIRE -496 -256 -496 -416
WIRE -352 -256 -352 -304
WIRE -256 -256 -352 -256
WIRE -912 -224 -912 -272
WIRE 448 -224 448 -288
WIRE -352 -208 -352 -256
WIRE -752 -176 -752 -224
WIRE 160 -176 160 -224
WIRE -192 -160 -192 -208
WIRE -912 -128 -912 -160
WIRE -816 -128 -912 -128
WIRE -352 -112 -352 -144
WIRE -256 -112 -352 -112
WIRE -912 -64 -912 -128
WIRE -352 -48 -352 -112
WIRE -752 -32 -752 -80
WIRE -192 -16 -192 -64
WIRE -912 16 -912 0
WIRE -352 32 -352 16
WIRE -752 64 -752 32
WIRE -192 80 -192 48
WIRE -912 112 -912 80
WIRE -352 128 -352 96
FLAG 448 -832 Vpp
IOPIN 448 -832 BiDir
FLAG 352 -528 Vneg
IOPIN 352 -528 BiDir
FLAG 448 -224 Vpp
IOPIN 448 -224 BiDir
FLAG 544 -528 0
FLAG 928 -464 0
FLAG 832 -416 0
FLAG 928 -544 out
IOPIN 928 -544 Out
FLAG 544 176 0
FLAG 736 96 in
FLAG 384 176 0
FLAG 384 96 Vneg
IOPIN 384 96 BiDir
FLAG 64 -736 Vpp
IOPIN 64 -736 BiDir
FLAG -160 -736 Vpp
IOPIN -160 -736 BiDir
FLAG -880 -832 Vpp
IOPIN -880 -832 BiDir
FLAG -624 -832 Vpp
IOPIN -624 -832 BiDir
FLAG -496 -256 0
FLAG -1056 -272 0
FLAG -192 80 Vneg
IOPIN -192 80 BiDir
FLAG 160 -176 Vneg
IOPIN 160 -176 BiDir
FLAG -352 128 Vneg
IOPIN -352 128 BiDir
FLAG -304 -432 Vneg
IOPIN -304 -432 BiDir
FLAG 224 176 0
FLAG 224 96 Vsink
IOPIN 224 96 BiDir
FLAG -752 64 Vsink
IOPIN -752 64 BiDir
FLAG -912 112 Vsink
IOPIN -912 112 BiDir
FLAG 656 -528 B+
IOPIN 656 -528 BiDir
FLAG 48 96 B+
IOPIN 48 96 BiDir
FLAG 48 176 0
FLAG 544 96 Vpp
IOPIN 544 96 BiDir
FLAG -1088 -592 in
FLAG 736 176 0
SYMBOL Tubes/6SN7 448 -720 R0
SYMATTR InstName U1
SYMBOL r 416 -640 R90
SYMATTR InstName R1
SYMATTR Value 26.6k
SYMBOL Tubes/6SN7 448 -336 M180
SYMATTR InstName U2
SYMBOL r 416 -416 M270
WINDOW 0 40 22 VRight 2
SYMATTR InstName R2
SYMATTR Value 26.6k
SYMBOL r 928 -528 R90
SYMATTR InstName R3
SYMATTR Value 9.2763
SYMBOL Trafos/P2647 736 -528 R0
SYMATTR InstName U3
SYMBOL voltage 544 80 R0
SYMATTR InstName V1
SYMATTR Value 205
SYMBOL voltage 736 80 R0
SYMATTR InstName V2
SYMATTR Value SINE(0 0.5490 1k 4.9 0 0)
SYMATTR Value2 AC 1
SYMBOL voltage 384 80 R0
SYMATTR InstName V3
SYMATTR Value -310
SYMBOL Tubes/6SN7 64 -528 M0
SYMATTR InstName U4
SYMBOL Tubes/6SN7 -160 -528 R0
SYMATTR InstName U5
SYMBOL r -160 -704 R90
SYMATTR InstName R4
SYMATTR Value 32250
SYMBOL r 64 -704 R90
SYMATTR InstName R5
SYMATTR Value 32250
SYMBOL r 304 -336 R0
SYMATTR InstName R6
SYMATTR Value 10k
SYMBOL r 368 -720 R180
SYMATTR InstName R7
SYMATTR Value 10k
SYMBOL Tubes/6SN7 -880 -592 R0
SYMATTR InstName U6
SYMBOL r -880 -736 M270
SYMATTR InstName R8
SYMATTR Value 15k
SYMBOL cap -832 -720 M90
WINDOW 0 0 32 VBottom 2
WINDOW 3 32 32 VTop 2
SYMATTR InstName C1
SYMATTR Value .1µ
SYMBOL r -304 -512 R90
SYMATTR InstName R9
SYMATTR Value 220k
SYMBOL Tubes/6SN7 -624 -592 M0
SYMATTR InstName U7
SYMBOL r -624 -736 R270
SYMATTR InstName R10
SYMATTR Value 15k
SYMBOL cap -528 -688 R90
WINDOW 0 0 32 VBottom 2
WINDOW 3 32 32 VTop 2
SYMATTR InstName C2
SYMATTR Value .1µ
SYMBOL r 160 -288 M90
SYMATTR InstName R11
SYMATTR Value 220k
SYMBOL r -1056 -544 R90
SYMATTR InstName R12
SYMATTR Value 1Meg
SYMBOL LED -368 32 R0
SYMATTR InstName D1
SYMATTR Value SFH4346
SYMBOL r -352 -368 R90
SYMATTR InstName R13
SYMATTR Value 137k
SYMBOL r -352 -208 R90
SYMATTR InstName R14
SYMATTR Value 820
SYMBOL r -192 -16 R90
SYMATTR InstName R15
SYMATTR Value 32
SYMBOL npn -240 -256 R0
SYMATTR InstName Q1
SYMATTR Value BC547C
SYMBOL npn -240 -112 R0
SYMATTR InstName Q2
SYMATTR Value BC547C
SYMBOL r -352 -48 R90
SYMATTR InstName R16
SYMATTR Value 37.6
SYMBOL LED -928 16 R0
SYMATTR InstName D2
SYMATTR Value SFH4346
SYMBOL r -912 -384 R90
SYMATTR InstName R17
SYMATTR Value 4.3k
SYMBOL r -912 -224 R90
SYMATTR InstName R18
SYMATTR Value 1k
SYMBOL r -752 -32 R90
SYMATTR InstName R19
SYMATTR Value 42.22
SYMBOL npn -800 -272 R0
SYMATTR InstName Q3
SYMATTR Value BC547C
SYMBOL npn -800 -128 R0
SYMATTR InstName Q4
SYMATTR Value BC547C
SYMBOL r -912 -64 R90
SYMATTR InstName R20
SYMATTR Value 38.8
SYMBOL voltage 224 80 R0
SYMATTR InstName V4
SYMATTR Value -10
SYMBOL r -960 -592 R180
SYMATTR InstName R21
SYMATTR Value 10k
SYMBOL r -496 -480 R270
SYMATTR InstName R22
SYMATTR Value 10k
SYMBOL r 160 -496 R90
SYMATTR InstName R23
SYMATTR Value 10k
SYMBOL r -288 -528 R0
SYMATTR InstName R24
SYMATTR Value 10k
SYMBOL voltage 48 80 R0
SYMATTR InstName V5
SYMATTR Value 550
SYMBOL NormanKoren/EL34 576 -672 R0
SYMATTR InstName U8
SYMBOL NormanKoren/EL34 576 -384 M180
SYMATTR InstName U9
TEXT 552 -40 Left 2 !.tran 0 5 4.9 10u
TEXT 544 -128 Left 2 !.OPTIONS numdgt=7\n.OPTIONS plotwinsize=0\n.four 1k 10 V(out)\n.four 1k 10 V(n004)
TEXT 544 -152 Left 2 ;.ac dec 100 10 100meg
TEXT 904 -144 Left 2 ;Refazer tudo para \n- 550V no CT\n- -53 de grade\n- 6k6:13.9151R ou 11480\n- Essa saída ta com 50Vpk nas entradas \n- Resultado: 3.3689% THD a 50,52WRMS
TEXT 920 0 Left 2 !.MODEL SFH4346 D	\n+	IS=	4.37E-14\n+	N=	1.806132146\n+	RS=	2.129475292\n+	IKF=	164.2918925\n+	IBV =	2.00E-07\n+	NBV =	105\n+	IBVL =	1.00E-06\n+	NBVL =	20\n+	BV =	28\n+	CJO =	1.67E-11\n+	TT =	8.00E-09\n+	EG =	1.3
TEXT 328 -8 Left 2 ;Total Harmonic Distortion: 0.762873%(0.767280%)
TEXT 344 -664 Left 2 ;-45V
TEXT 344 -400 Left 2 ;-45V
TEXT -88 -384 Left 2 ;-298V
TEXT -776 -528 Left 2 ;2.7V
TEXT -16 208 Left 2 ;88mA med
TEXT 152 208 Left 2 ;13.7mA med
TEXT 328 208 Left 2 ;38mA med
TEXT 488 208 Left 2 ;48mA med
TEXT -528 -576 VRight 2 ;Aqui so vai grid stopper, nao vai leak, SEM 1MEGA!!!!
TEXT -968 -800 Left 2 ;trim com tapper em vpp. extremos em R8 e R9
TEXT -1232 -64 Left 2 ;alteracao v(R19) com adicao de diodo
TEXT -312 -40 Left 2 ;idem
TEXT 512 -648 VRight 2 ;resistor catodo e grade
TEXT -192 -352 Left 2 ;trimpot balanco de corrente
TEXT 544 -256 Left 2 !.meas tran irms rms i(r3)\n.meas tran vrms rms v(out)\n.meas tran prms param irms*vrms
