Version 4
SHEET 1 1652 776
WIRE -608 -304 -608 -336
WIRE -352 -304 -352 -336
WIRE 720 -272 720 -336
WIRE 576 -224 512 -224
WIRE 672 -224 640 -224
WIRE 928 -224 848 -224
WIRE -608 -208 -608 -240
WIRE -560 -208 -608 -208
WIRE -32 -208 -496 -208
WIRE 112 -208 112 -240
WIRE 336 -208 336 -240
WIRE -352 -176 -352 -240
WIRE -320 -176 -352 -176
WIRE -48 -176 -256 -176
WIRE 928 -176 896 -176
WIRE 688 -160 688 -176
WIRE 800 -160 688 -160
WIRE -608 -144 -608 -208
WIRE -352 -144 -352 -176
WIRE 688 -144 688 -160
WIRE 112 -128 112 -144
WIRE 512 -128 512 -224
WIRE 512 -128 112 -128
WIRE 928 -128 928 -176
WIRE -784 -96 -816 -96
WIRE -752 -96 -784 -96
WIRE -656 -96 -688 -96
WIRE -400 -96 -416 -96
WIRE -224 -96 -304 -96
WIRE 336 -96 336 -144
WIRE 512 -96 336 -96
WIRE 112 -80 112 -128
WIRE 336 -80 336 -96
WIRE -784 -48 -784 -96
WIRE -224 -48 -224 -96
WIRE -32 -32 -32 -208
WIRE -16 -32 -32 -32
WIRE 64 -32 48 -32
WIRE 432 -32 384 -32
WIRE 688 -32 688 -80
WIRE 688 -32 624 -32
WIRE 816 -32 816 -112
WIRE 1200 -32 1200 -48
WIRE 1200 -32 1104 -32
WIRE -640 -16 -640 -48
WIRE -480 -16 -640 -16
WIRE -320 -16 -320 -48
WIRE -320 -16 -480 -16
WIRE -32 -16 -32 -32
WIRE 432 0 432 -32
WIRE 688 16 688 -32
WIRE 816 48 816 -32
WIRE -784 64 -784 16
WIRE -640 64 -784 64
WIRE -32 64 -32 48
WIRE -224 80 -224 16
WIRE -80 80 -224 80
WIRE 688 96 688 80
WIRE 800 96 688 96
WIRE -640 112 -640 64
WIRE 688 112 688 96
WIRE 928 112 928 64
WIRE 928 112 896 112
WIRE -80 128 -80 80
WIRE 80 128 80 16
WIRE 368 128 368 16
WIRE 368 128 80 128
WIRE -48 160 -48 -176
WIRE 432 160 432 64
WIRE 432 160 -48 160
WIRE 512 160 512 -96
WIRE 576 160 512 160
WIRE 672 160 640 160
WIRE 928 160 848 160
WIRE -480 176 -480 -16
WIRE 80 192 80 128
WIRE 432 208 432 160
WIRE -784 224 -784 64
WIRE -640 224 -640 176
WIRE -544 224 -640 224
WIRE -224 240 -224 80
WIRE -80 240 -80 192
WIRE 16 240 -80 240
WIRE -640 272 -640 224
WIRE 720 272 720 208
WIRE -80 288 -80 240
WIRE -480 320 -480 272
WIRE 432 320 432 272
WIRE 80 336 80 288
WIRE -640 368 -640 336
WIRE -544 368 -640 368
WIRE -80 384 -80 352
WIRE 16 384 -80 384
WIRE -640 432 -640 368
WIRE -80 448 -80 384
WIRE -480 464 -480 416
WIRE 80 480 80 432
WIRE -640 512 -640 496
WIRE -80 528 -80 512
WIRE -480 560 -480 528
WIRE 80 576 80 544
WIRE -640 608 -640 576
WIRE -80 624 -80 592
FLAG 720 -336 Vpp
IOPIN 720 -336 BiDir
FLAG 624 -32 Vneg
IOPIN 624 -32 BiDir
FLAG 720 272 Vpp
IOPIN 720 272 BiDir
FLAG 816 -32 0
FLAG 1200 32 0
FLAG 1104 80 0
FLAG 1200 -48 out
IOPIN 1200 -48 Out
FLAG 816 672 0
FLAG 1008 592 in
FLAG 656 672 0
FLAG 656 592 Vneg
IOPIN 656 592 BiDir
FLAG 336 -240 Vpp
IOPIN 336 -240 BiDir
FLAG 112 -240 Vpp
IOPIN 112 -240 BiDir
FLAG -608 -336 Vpp
IOPIN -608 -336 BiDir
FLAG -352 -336 Vpp
IOPIN -352 -336 BiDir
FLAG -224 240 0
FLAG -784 224 0
FLAG 80 576 Vneg
IOPIN 80 576 BiDir
FLAG 432 320 Vneg
IOPIN 432 320 BiDir
FLAG -80 624 Vneg
IOPIN -80 624 BiDir
FLAG -32 64 Vneg
IOPIN -32 64 BiDir
FLAG 496 672 0
FLAG 496 592 Vsink
IOPIN 496 592 BiDir
FLAG -480 560 Vsink
IOPIN -480 560 BiDir
FLAG -640 608 Vsink
IOPIN -640 608 BiDir
FLAG 928 -32 B+
IOPIN 928 -32 BiDir
FLAG 320 592 B+
IOPIN 320 592 BiDir
FLAG 320 672 0
FLAG 816 592 Vpp
IOPIN 816 592 BiDir
FLAG -816 -96 in
FLAG 1008 672 0
SYMBOL Tubes/6SN7 720 -224 R0
SYMATTR InstName U1
SYMBOL r 688 -144 R90
SYMATTR InstName R1
SYMATTR Value 26.6k
SYMBOL Tubes/6SN7 720 160 M180
SYMATTR InstName U2
SYMBOL r 688 80 M270
WINDOW 0 40 22 VRight 2
SYMATTR InstName R2
SYMATTR Value 26.6k
SYMBOL r 1200 -32 R90
SYMATTR InstName R3
SYMATTR Value 10.4364
SYMBOL Trafos/P2647 1008 -32 R0
SYMATTR InstName U3
SYMBOL voltage 816 576 R0
SYMATTR InstName V1
SYMATTR Value 205
SYMBOL voltage 1008 576 R0
SYMATTR InstName V2
SYMATTR Value SINE(0 100m 1k 4.9 0 0)
SYMATTR Value2 AC 1
SYMBOL voltage 656 576 R0
SYMATTR InstName V3
SYMATTR Value -310
SYMBOL Tubes/6SN7 336 -32 M0
SYMATTR InstName U4
SYMBOL Tubes/6SN7 112 -32 R0
SYMATTR InstName U5
SYMBOL r 112 -208 R90
SYMATTR InstName R4
SYMATTR Value 32250
SYMBOL r 336 -208 R90
SYMATTR InstName R5
SYMATTR Value 32250
SYMBOL r 576 160 R0
SYMATTR InstName R6
SYMATTR Value 10k
SYMBOL r 640 -224 R180
SYMATTR InstName R7
SYMATTR Value 10k
SYMBOL Tubes/6SN7 -608 -96 R0
SYMATTR InstName U6
SYMBOL r -608 -240 M270
SYMATTR InstName R8
SYMATTR Value 15k
SYMBOL cap -560 -224 M90
WINDOW 0 0 32 VBottom 2
WINDOW 3 32 32 VTop 2
SYMATTR InstName C1
SYMATTR Value .1µ
SYMBOL r -32 -16 R90
SYMATTR InstName R9
SYMATTR Value 220k
SYMBOL Tubes/6SN7 -352 -96 M0
SYMATTR InstName U7
SYMBOL r -352 -240 R270
SYMATTR InstName R10
SYMATTR Value 15k
SYMBOL cap -256 -192 R90
WINDOW 0 0 32 VBottom 2
WINDOW 3 32 32 VTop 2
SYMATTR InstName C2
SYMATTR Value .1µ
SYMBOL r 432 208 M90
SYMATTR InstName R11
SYMATTR Value 220k
SYMBOL r -784 -48 R90
SYMATTR InstName R12
SYMATTR Value 1Meg
SYMBOL LED -96 528 R0
SYMATTR InstName D1
SYMATTR Value SFH4346
SYMBOL r -80 128 R90
SYMATTR InstName R13
SYMATTR Value 137k
SYMBOL r -80 288 R90
SYMATTR InstName R14
SYMATTR Value 820
SYMBOL r 80 480 R90
SYMATTR InstName R15
SYMATTR Value 32
SYMBOL npn 32 240 R0
SYMATTR InstName Q1
SYMATTR Value BC547C
SYMBOL npn 32 384 R0
SYMATTR InstName Q2
SYMATTR Value BC547C
SYMBOL r -80 448 R90
SYMATTR InstName R16
SYMATTR Value 37.6
SYMBOL LED -656 512 R0
SYMATTR InstName D2
SYMATTR Value SFH4346
SYMBOL r -640 112 R90
SYMATTR InstName R17
SYMATTR Value 4.3k
SYMBOL r -640 272 R90
SYMATTR InstName R18
SYMATTR Value 1k
SYMBOL r -480 464 R90
SYMATTR InstName R19
SYMATTR Value 42.22
SYMBOL npn -528 224 R0
SYMATTR InstName Q3
SYMATTR Value BC547C
SYMBOL npn -528 368 R0
SYMATTR InstName Q4
SYMATTR Value BC547C
SYMBOL r -640 432 R90
SYMATTR InstName R20
SYMATTR Value 38.8
SYMBOL voltage 496 576 R0
SYMATTR InstName V4
SYMATTR Value -10
SYMBOL r -688 -96 R180
SYMATTR InstName R21
SYMATTR Value 10k
SYMBOL r -224 16 R270
SYMATTR InstName R22
SYMATTR Value 10k
SYMBOL r 432 0 R90
SYMATTR InstName R23
SYMATTR Value 10k
SYMBOL r -16 -32 R0
SYMATTR InstName R24
SYMATTR Value 10k
SYMBOL voltage 320 576 R0
SYMATTR InstName V5
SYMATTR Value 550
SYMBOL NormanKoren/EL34 848 -176 R0
SYMATTR InstName U8
SYMBOL NormanKoren/EL34 848 112 M180
SYMATTR InstName U9
TEXT 824 456 Left 2 !.tran 0 5 4.9 10u
TEXT 816 368 Left 2 !.OPTIONS numdgt=7\n.OPTIONS plotwinsize=0\n.four 1k 10 V(out)\n.four 1k 10 V(n004)
TEXT 816 344 Left 2 ;.ac dec 100 10 100meg
TEXT 1176 352 Left 2 ;Refazer tudo para \n- 550V no CT\n- -53 de grade\n- 6k6:9.2764R ou 7653\n- 549mVpk 1kHz input\n- Resultado: 2.4449% THD a 58.3836WRMS
TEXT 1192 496 Left 2 !.MODEL SFH4346 D	\n+	IS=	4.37E-14\n+	N=	1.806132146\n+	RS=	2.129475292\n+	IKF=	164.2918925\n+	IBV =	2.00E-07\n+	NBV =	105\n+	IBVL =	1.00E-06\n+	NBVL =	20\n+	BV =	28\n+	CJO =	1.67E-11\n+	TT =	8.00E-09\n+	EG =	1.3
TEXT 600 488 Left 2 ;Total Harmonic Distortion: 0.762873%(0.767280%)
TEXT 616 -168 Left 2 ;-54V
TEXT 616 96 Left 2 ;-54V
TEXT 184 112 Left 2 ;-298V
TEXT -504 -32 Left 2 ;2.7V
TEXT 256 704 Left 2 ;88mA med
TEXT 424 704 Left 2 ;13.7mA med
TEXT 600 704 Left 2 ;38mA med
TEXT 760 704 Left 2 ;48mA med
TEXT -256 -80 VRight 2 ;Aqui so vai grid stopper, nao vai leak, SEM 1MEGA!!!!
TEXT -696 -304 Left 2 ;trim com tapper em vpp. extremos em R8 e R9
TEXT -960 432 Left 2 ;alteracao v(R19) com adicao de diodo
TEXT -40 456 Left 2 ;idem
TEXT 784 -152 VRight 2 ;resistor catodo e grade
TEXT 80 144 Left 2 ;trimpot balanco de corrente
TEXT 816 240 Left 2 !.meas tran irms rms i(r3)\n.meas tran vrms rms v(out)\n.meas tran prms param irms*vrms
