Version 4
SHEET 1 2076 712
WIRE 336 -16 208 -16
WIRE 208 0 208 -16
WIRE 208 0 32 0
WIRE 208 16 208 0
WIRE 336 16 336 -16
WIRE 1616 16 1568 16
WIRE 1696 16 1616 16
WIRE 1568 32 1568 16
WIRE 1568 32 1392 32
WIRE 32 48 32 0
WIRE 1568 48 1568 32
WIRE 1696 48 1696 16
WIRE 1392 80 1392 32
WIRE 1856 96 1744 96
WIRE 1904 96 1856 96
WIRE 208 112 208 80
WIRE 208 112 160 112
WIRE 336 112 336 80
WIRE 400 112 336 112
WIRE 464 112 400 112
WIRE 1616 112 1616 16
WIRE 1648 112 1616 112
WIRE 208 128 208 112
WIRE 336 128 336 112
WIRE 1568 144 1568 112
WIRE 1568 144 1520 144
WIRE 1648 144 1616 144
WIRE 1904 144 1904 96
WIRE 1904 144 1888 144
WIRE 1952 144 1904 144
WIRE 1568 160 1568 144
WIRE 1776 160 1744 160
WIRE 32 192 32 128
WIRE 208 192 32 192
WIRE 208 224 208 192
WIRE 336 224 336 192
WIRE 336 224 208 224
WIRE 464 224 464 112
WIRE 1392 224 1392 160
WIRE 1568 224 1392 224
WIRE 1568 256 1568 224
WIRE 1616 256 1616 144
WIRE 1616 256 1568 256
WIRE 1696 256 1696 224
WIRE 1696 256 1616 256
WIRE 1776 256 1776 160
WIRE 1856 256 1856 96
WIRE 1856 256 1776 256
WIRE 1952 256 1952 144
WIRE 400 368 400 112
WIRE 1888 400 1888 144
WIRE 160 560 160 112
WIRE 1520 592 1520 144
WIRE 160 672 160 560
WIRE 400 672 400 448
WIRE 400 672 160 672
WIRE 464 672 464 288
WIRE 464 672 400 672
WIRE 1520 704 1520 592
WIRE 1888 704 1888 480
WIRE 1888 704 1520 704
WIRE 1952 704 1952 320
WIRE 1952 704 1888 704
FLAG 160 560 0
FLAG 1520 592 0
SYMBOL cap 480 288 R180
WINDOW 0 24 56 Left 2
WINDOW 3 24 8 Left 2
SYMATTR InstName C1
SYMATTR Value 165µ
SYMATTR SpiceLine Rser=660m
SYMBOL voltage 32 32 R0
SYMATTR InstName V1
SYMATTR Value SINE(0 582 60)
SYMATTR SpiceLine Rser=49.705
SYMBOL diode 192 128 R0
SYMATTR InstName D1
SYMATTR Value 1n4007
SYMBOL diode 320 16 R0
SYMATTR InstName D2
SYMATTR Value 1n4007
SYMBOL diode 352 192 R180
WINDOW 0 40 44 Left 2
WINDOW 3 39 20 Left 2
SYMATTR InstName D3
SYMATTR Value 1n4007
SYMBOL diode 224 80 R180
WINDOW 0 40 44 Left 2
WINDOW 3 39 20 Left 2
SYMATTR InstName D4
SYMATTR Value 1n4007
SYMBOL current 400 368 R0
SYMATTR InstName I1
SYMATTR Value 364m
SYMBOL cap 1968 320 R180
WINDOW 0 24 56 Left 2
WINDOW 3 24 8 Left 2
SYMATTR InstName C2
SYMATTR Value 165µ
SYMATTR SpiceLine Rser=660m
SYMBOL voltage 1392 64 R0
SYMATTR InstName V2
SYMATTR Value SINE(0 582 60)
SYMATTR SpiceLine Rser=49.705
SYMBOL diode 1552 160 R0
SYMATTR InstName D5
SYMATTR Value 1n4007
SYMBOL diode 1584 112 R180
WINDOW 0 40 44 Left 2
WINDOW 3 39 20 Left 2
SYMATTR InstName D8
SYMATTR Value 1n4007
SYMBOL current 1888 400 R0
SYMATTR InstName I2
SYMATTR Value 364m
SYMBOL Tubes/5U4GB 1696 128 R180
SYMATTR InstName U1
TEXT -8 -48 Left 2 ;350V@0.35A
TEXT 552 304 Left 2 !.model 1N4007 D(IS=7.02767n RS=0.0341512 N=1.80803 \n+ EG=1.05743 XTI=5 BV=1000 IBV=5e-08 CJO=1e-11 \n+ VJ=0.7 M=0.5 FC=0.5 TT=1e-07 mfg=OnSemi type=silicon)
TEXT 504 488 Left 2 !.tran 0 10 0 10u
TEXT 792 472 Left 2 ;.dc i1 0 400m 0.1m
TEXT 1352 -16 Left 2 ;350V@0.35A
