Version 4
SHEET 1 1628 2072
WIRE 512 400 512 352
WIRE 1120 400 1120 352
WIRE 1536 432 1536 352
WIRE 512 480 512 464
WIRE 576 480 512 480
WIRE 688 480 640 480
WIRE 1120 480 1120 464
WIRE 1184 480 1120 480
WIRE 1312 480 1248 480
WIRE 1392 480 1312 480
WIRE 1488 480 1456 480
WIRE 1312 512 1312 480
WIRE 512 528 512 480
WIRE 1120 544 1120 480
WIRE 304 576 112 576
WIRE 352 576 304 576
WIRE 464 576 416 576
WIRE 688 592 688 480
WIRE 768 592 688 592
WIRE 912 592 832 592
WIRE 960 592 912 592
WIRE 1072 592 1024 592
WIRE 1504 592 1504 528
WIRE 112 608 112 576
WIRE 480 656 480 624
WIRE 480 656 416 656
WIRE 688 656 688 592
WIRE 1312 656 1312 576
WIRE 304 672 304 576
WIRE 416 672 416 656
WIRE 480 672 480 656
WIRE 1088 672 1088 640
WIRE 1088 672 1024 672
WIRE 912 688 912 592
WIRE 1024 688 1024 672
WIRE 1088 688 1088 672
WIRE 112 768 112 688
WIRE 688 784 688 720
WIRE 304 800 304 736
WIRE 416 800 416 736
WIRE 480 800 480 736
WIRE 912 816 912 752
WIRE 1024 816 1024 752
WIRE 1088 816 1088 752
WIRE 1312 816 1312 720
WIRE 1504 816 1504 656
FLAG 480 800 0
FLAG 112 432 V+
IOPIN 112 432 BiDir
FLAG 112 512 0
FLAG 112 768 0
FLAG 304 800 0
FLAG 416 800 0
FLAG 512 352 V+
IOPIN 512 352 BiDir
FLAG 912 816 0
FLAG 688 784 0
FLAG 1088 816 0
FLAG 1024 816 0
FLAG 1312 816 0
FLAG 1504 816 0
FLAG 1120 352 V+
IOPIN 1120 352 BiDir
FLAG 1536 352 V+
IOPIN 1536 352 BiDir
SYMBOL NormanKoren/12AX7 512 576 R0
SYMATTR InstName U1
SYMBOL r 416 576 R180
SYMATTR InstName R4
SYMATTR Value 1k
SYMBOL voltage 112 416 R0
SYMATTR InstName V1
SYMATTR Value 300
SYMBOL voltage 112 592 R0
SYMATTR InstName V2
SYMATTR Value SINE(0 10m 1k)
SYMATTR Value2 AC 1
SYMBOL r 304 672 R90
SYMATTR InstName R5
SYMATTR Value 1Meg
SYMBOL r 480 672 R90
SYMATTR InstName R6
SYMATTR Value 1.6k
SYMBOL cap 432 736 R180
WINDOW 0 24 56 Left 2
WINDOW 3 24 8 Left 2
SYMATTR InstName C3
SYMATTR Value 470µ
SYMBOL r 512 400 R90
SYMATTR InstName R1
SYMATTR Value 100k
SYMBOL cap 832 576 R90
WINDOW 0 0 32 VBottom 2
WINDOW 3 32 32 VTop 2
SYMATTR InstName C1
SYMATTR Value 100n
SYMBOL NormanKoren/12AX7 1120 592 R0
SYMATTR InstName U2
SYMBOL r 1024 592 R180
SYMATTR InstName R2
SYMATTR Value 1k
SYMBOL r 912 688 R90
SYMATTR InstName R3
SYMATTR Value 1Meg
SYMBOL r 576 480 R0
SYMATTR InstName R7
SYMATTR Value 182k
SYMBOL cap 672 656 R0
SYMATTR InstName C11
SYMATTR Value 250p
SYMBOL r 1088 688 R90
SYMATTR InstName R8
SYMATTR Value 1.6k
SYMBOL cap 1040 752 R180
WINDOW 0 24 56 Left 2
WINDOW 3 24 8 Left 2
SYMATTR InstName C12
SYMATTR Value 470µ
SYMBOL NormanKoren/12AX7 1536 480 R0
SYMATTR InstName U6
SYMBOL r 1184 480 R0
SYMATTR InstName R9
SYMATTR Value 127k
SYMBOL cap 1296 656 R0
SYMATTR InstName C14
SYMATTR Value 17.297n
SYMBOL r 1504 592 R90
SYMATTR InstName R10
SYMATTR Value 127k
SYMBOL r 1312 512 R90
SYMATTR InstName R27
SYMATTR Value 18.385k
SYMBOL r 1120 400 R90
SYMATTR InstName R28
SYMATTR Value 100k
SYMBOL r 1456 480 R180
SYMATTR InstName R11
SYMATTR Value 1k
TEXT -472 232 Left 2 ;.tran 0 2 1.99 10u
TEXT -472 256 Left 2 !.OPTIONS numdgt=7\n.OPTIONS plotwinsize=0\n.four 1k 10 V(out)\n.four 1k 10 V(out2)\n.four 1k 10 V(out3)\n.four 1k 10 V(out4)
TEXT -904 48 Left 2 !.MODEL SFH4346 D	\n+	IS=	4.37E-14\n+	N=	1.806132146\n+	RS=	2.129475292\n+	IKF=	164.2918925\n+	IBV =	2.00E-07\n+	NBV =	105\n+	IBVL =	1.00E-06\n+	NBVL =	20\n+	BV =	28\n+	CJO =	1.67E-11\n+	TT =	8.00E-09\n+	EG =	1.3
TEXT -904 392 Left 2 !.model MJE340 NPN(IS=1.03431e-13 BF=172.974 NF=0.939811 VAF=27.3487\n+ IKF=0.0260146 ISE=4.48447e-11 NE=1.61605 BR=16.6725\n+ NR=0.796984 VAR=6.11596 IKR=0.10004 ISC=9.99914e-14\n+ NC=1.99995 RB=1.47761 IRB=0.2 RBM=1.47761 RE=0.0001\n+ RC=1.42228 XTB=2.70726 XTI=1 EG=1.206 CJE=1e-11\n+ VJE=0.75 MJE=0.33 TF=1e-09 XTF=1 VTF=10 ITF=0.01\n+ CJC=1e-11 VJC=0.75 MJC=0.33 XCJC=0.9 FC=0.5 CJS=0\n+ VJS=0.75 MJS=0.5 TR=1e-07 PTF=0 Vceo=300 Icrating=0.5A\n+ mfg=OnSemi)
TEXT -904 616 Left 2 !.MODEL MJE350 PNP(IS=6.01619f BF=157.387 NF=0.910131 VAF=23.273\n+ IKF=0.0564808 ISE=4.48479p NE=1.58557 BR=0.1 NR=1.03823\n+ VAR=4.14543 IKR=0.0999978 ISC=1.00199e-13 NC=1.98851 RB=0.1\n+ IRB=0.202965 RBM=0.1 RE=0.0710678 RC=0.355339 XTB=1.03638\n+ XTI=3.8424 EG=1.206 CJE=1e-11 VJE=0.75 MJE=0.33 TF=1e-09 XTF=1\n+ VTF=10 ITF=0.01 CJC=1e-11 VJC=0.75 MJC=0.33 XCJC=0.9 FC=0.5\n+ CJS=0 VJS=0.75 MJS=0.5 TR=1e-07 PTF=0 Vceo=300 Icrating=0.5A\n+ mfg=OnSemi)
TEXT -904 800 Left 2 !.model 1N4007 D(IS=7.02767n RS=0.0341512 N=1.80803 \n+ EG=1.05743 XTI=5 BV=1000 IBV=5e-08 CJO=1e-11 VJ=0.7 \n+ M=0.5 FC=0.5 TT=1e-07 mfg=OnSemi type=silicon)
TEXT -472 344 Left 2 !.ac dec 100 1 10meg
