Version 4
SHEET 1 2332 3544
WIRE -10384 1200 -10384 1152
WIRE -10240 1200 -10240 1152
WIRE -9776 1200 -9776 1152
WIRE -9632 1200 -9632 1152
WIRE -10240 1328 -10240 1264
WIRE -9632 1328 -9632 1264
WIRE -10384 1376 -10384 1264
WIRE -10304 1376 -10384 1376
WIRE -9776 1376 -9776 1264
WIRE -9696 1376 -9776 1376
WIRE -10384 1408 -10384 1376
WIRE -9776 1408 -9776 1376
WIRE -10240 1472 -10240 1424
WIRE -9632 1472 -9632 1424
WIRE -10384 1520 -10384 1472
WIRE -10304 1520 -10384 1520
WIRE -9776 1520 -9776 1472
WIRE -9696 1520 -9776 1520
WIRE -10384 1552 -10384 1520
WIRE -9776 1552 -9776 1520
WIRE -9216 1600 -9216 1504
WIRE -10656 1632 -10656 1456
WIRE -10384 1648 -10384 1616
WIRE -10240 1648 -10240 1568
WIRE -10176 1648 -10240 1648
WIRE -10064 1648 -10112 1648
WIRE -9776 1648 -9776 1616
WIRE -9632 1648 -9632 1568
WIRE -9568 1648 -9632 1648
WIRE -9440 1648 -9504 1648
WIRE -9376 1648 -9440 1648
WIRE -9264 1648 -9312 1648
WIRE -10976 1680 -11072 1680
WIRE -10864 1680 -10912 1680
WIRE -10816 1680 -10864 1680
WIRE -10704 1680 -10752 1680
WIRE -9440 1680 -9440 1648
WIRE -10240 1712 -10240 1648
WIRE -9632 1712 -9632 1648
WIRE -11072 1744 -11072 1680
WIRE -9248 1744 -9248 1696
WIRE -10688 1760 -10688 1728
WIRE -10592 1760 -10688 1760
WIRE -10448 1760 -10528 1760
WIRE -10400 1760 -10448 1760
WIRE -10288 1760 -10336 1760
WIRE -10064 1760 -10064 1648
WIRE -9984 1760 -10064 1760
WIRE -9840 1760 -9920 1760
WIRE -9792 1760 -9840 1760
WIRE -9680 1760 -9728 1760
WIRE -9248 1760 -9248 1744
WIRE -10864 1776 -10864 1680
WIRE -10688 1776 -10688 1760
WIRE -9440 1808 -9440 1744
WIRE -9440 1808 -9504 1808
WIRE -9376 1808 -9440 1808
WIRE -10064 1824 -10064 1760
WIRE -9504 1824 -9504 1808
WIRE -10272 1840 -10272 1808
WIRE -10272 1840 -10336 1840
WIRE -9664 1840 -9664 1808
WIRE -9664 1840 -9728 1840
WIRE -10448 1856 -10448 1760
WIRE -10336 1856 -10336 1840
WIRE -10272 1856 -10272 1840
WIRE -9840 1856 -9840 1760
WIRE -9728 1856 -9728 1840
WIRE -9664 1856 -9664 1840
WIRE -9376 1856 -9376 1808
WIRE -11072 1904 -11072 1824
WIRE -10864 1904 -10864 1840
WIRE -10688 1904 -10688 1840
WIRE -10688 1904 -10864 1904
WIRE -10688 1952 -10688 1904
WIRE -10064 1952 -10064 1888
WIRE -10448 1984 -10448 1920
WIRE -10336 1984 -10336 1920
WIRE -10272 1984 -10272 1920
WIRE -9840 1984 -9840 1920
WIRE -9728 1984 -9728 1920
WIRE -9664 1984 -9664 1920
WIRE -9504 1984 -9504 1888
WIRE -9376 1984 -9376 1920
WIRE -9248 1984 -9248 1824
WIRE -10688 2064 -10688 2016
FLAG -9248 1744 out
FLAG -10384 1648 0
FLAG -10240 1152 V+
IOPIN -10240 1152 BiDir
FLAG -10384 1152 V+
IOPIN -10384 1152 BiDir
FLAG -10272 1984 0
FLAG -10816 1360 V+
IOPIN -10816 1360 BiDir
FLAG -10816 1440 0
FLAG -11072 1904 0
FLAG -10448 1984 0
FLAG -9776 1648 0
FLAG -9632 1152 V+
IOPIN -9632 1152 BiDir
FLAG -9776 1152 V+
IOPIN -9776 1152 BiDir
FLAG -9840 1984 0
FLAG -10064 1952 0
FLAG -10336 1984 0
FLAG -9664 1984 0
FLAG -9728 1984 0
FLAG -9504 1984 0
FLAG -9248 1984 0
FLAG -9216 1504 V+
IOPIN -9216 1504 BiDir
FLAG -9376 1984 0
FLAG -10656 1456 V+
IOPIN -10656 1456 BiDir
FLAG -10688 2064 0
FLAG -9840 1760 out1
SYMBOL NormanKoren/12AX7 -10240 1760 R0
SYMATTR InstName U1
SYMBOL r -10384 1472 R270
SYMATTR InstName R1
SYMATTR Value 820
SYMBOL r -10384 1616 R270
SYMATTR InstName R2
SYMATTR Value 127k
SYMBOL r -10240 1264 R270
SYMATTR InstName R3
SYMATTR Value 519
SYMBOL LED -10400 1200 R0
SYMATTR InstName D1
SYMATTR Value SFH4346
SYMBOL pnp -10288 1376 R0
SYMATTR InstName Q1
SYMATTR Value BC557C
SYMBOL pnp -10288 1520 R0
SYMATTR InstName Q2
SYMATTR Value mje350
SYMBOL r -10336 1760 R180
SYMATTR InstName R4
SYMATTR Value 1k
SYMBOL cap -9920 1744 R90
WINDOW 0 0 32 VBottom 2
WINDOW 3 32 32 VTop 2
SYMATTR InstName C1
SYMATTR Value 100n
SYMBOL voltage -10816 1344 R0
SYMATTR InstName V1
SYMATTR Value 300
SYMBOL voltage -11072 1728 R0
SYMATTR InstName V2
SYMATTR Value SINE(0 10m 1k)
SYMATTR Value2 AC 1
SYMBOL r -10448 1856 R90
SYMATTR InstName R6
SYMATTR Value 1Meg
SYMBOL r -10272 1856 R90
SYMATTR InstName R5
SYMATTR Value 1k
SYMBOL NormanKoren/12AX7 -9632 1760 R0
SYMATTR InstName U2
SYMBOL r -9776 1472 R270
SYMATTR InstName R7
SYMATTR Value 820
SYMBOL r -9776 1616 R270
SYMATTR InstName R8
SYMATTR Value 127k
SYMBOL r -9632 1264 R270
SYMATTR InstName R9
SYMATTR Value 519
SYMBOL LED -9792 1200 R0
SYMATTR InstName D2
SYMATTR Value SFH4346
SYMBOL pnp -9680 1376 R0
SYMATTR InstName Q3
SYMATTR Value BC557C
SYMBOL pnp -9680 1520 R0
SYMATTR InstName Q4
SYMATTR Value mje350
SYMBOL r -9728 1760 R180
SYMATTR InstName R10
SYMATTR Value 1k
SYMBOL r -9840 1856 R90
SYMATTR InstName R11
SYMATTR Value 1Meg
SYMBOL r -10176 1648 R0
SYMATTR InstName R13
SYMATTR Value 159k
SYMBOL cap -10080 1824 R0
SYMATTR InstName C3
SYMATTR Value 250p
SYMBOL cap -10320 1920 R180
WINDOW 0 24 56 Left 2
WINDOW 3 24 8 Left 2
SYMATTR InstName C4
SYMATTR Value 470µ
SYMBOL r -9664 1856 R90
SYMATTR InstName R12
SYMATTR Value 1k
SYMBOL cap -9712 1920 R180
WINDOW 0 24 56 Left 2
WINDOW 3 24 8 Left 2
SYMATTR InstName C5
SYMATTR Value 470µ
SYMBOL NormanKoren/12AX7 -9216 1648 R0
SYMATTR InstName U3
SYMBOL r -9504 1648 R180
SYMATTR InstName R14
SYMATTR Value 150k
SYMBOL cap -9520 1824 R0
SYMATTR InstName C2
SYMATTR Value 15n
SYMBOL r -9248 1760 R90
SYMATTR InstName R17
SYMATTR Value 100k
SYMBOL r -9440 1680 R90
SYMATTR InstName R15
SYMATTR Value 21.056k
SYMBOL r -9376 1648 R0
SYMATTR InstName R16
SYMATTR Value 1k
SYMBOL NormanKoren/12AX7 -10656 1680 R0
SYMATTR InstName U5
SYMBOL r -10752 1680 R180
SYMATTR InstName R24
SYMATTR Value 1k
SYMBOL r -10864 1776 R90
SYMATTR InstName R25
SYMATTR Value 1Meg
SYMBOL r -10688 1776 R90
SYMATTR InstName R26
SYMATTR Value 1.6k
SYMBOL r -10688 1952 R90
SYMATTR InstName R27
SYMATTR Value 100k
SYMBOL cap -10912 1664 R90
WINDOW 0 0 32 VBottom 2
WINDOW 3 32 32 VTop 2
SYMATTR InstName C9
SYMATTR Value 100n
SYMBOL cap -10528 1744 R90
WINDOW 0 0 32 VBottom 2
WINDOW 3 32 32 VTop 2
SYMATTR InstName C6
SYMATTR Value 1µ
SYMBOL cap -9392 1856 R0
SYMATTR InstName C7
SYMATTR Value 100p
TEXT -8664 1368 Left 2 ;.tran 0 2 1.99 10u
TEXT -8664 1392 Left 2 !.OPTIONS numdgt=7\n.OPTIONS plotwinsize=0\n.four 1k 10 V(out)\n.four 1k 10 V(out2)
TEXT -9096 1184 Left 2 !.MODEL SFH4346 D	\n+	IS=	4.37E-14\n+	N=	1.806132146\n+	RS=	2.129475292\n+	IKF=	164.2918925\n+	IBV =	2.00E-07\n+	NBV =	105\n+	IBVL =	1.00E-06\n+	NBVL =	20\n+	BV =	28\n+	CJO =	1.67E-11\n+	TT =	8.00E-09\n+	EG =	1.3
TEXT -9096 1528 Left 2 !.model MJE340 NPN(IS=1.03431e-13 BF=172.974 NF=0.939811 VAF=27.3487\n+ IKF=0.0260146 ISE=4.48447e-11 NE=1.61605 BR=16.6725\n+ NR=0.796984 VAR=6.11596 IKR=0.10004 ISC=9.99914e-14\n+ NC=1.99995 RB=1.47761 IRB=0.2 RBM=1.47761 RE=0.0001\n+ RC=1.42228 XTB=2.70726 XTI=1 EG=1.206 CJE=1e-11\n+ VJE=0.75 MJE=0.33 TF=1e-09 XTF=1 VTF=10 ITF=0.01\n+ CJC=1e-11 VJC=0.75 MJC=0.33 XCJC=0.9 FC=0.5 CJS=0\n+ VJS=0.75 MJS=0.5 TR=1e-07 PTF=0 Vceo=300 Icrating=0.5A\n+ mfg=OnSemi)
TEXT -9096 1752 Left 2 !.MODEL MJE350 PNP(IS=6.01619f BF=157.387 NF=0.910131 VAF=23.273\n+ IKF=0.0564808 ISE=4.48479p NE=1.58557 BR=0.1 NR=1.03823\n+ VAR=4.14543 IKR=0.0999978 ISC=1.00199e-13 NC=1.98851 RB=0.1\n+ IRB=0.202965 RBM=0.1 RE=0.0710678 RC=0.355339 XTB=1.03638\n+ XTI=3.8424 EG=1.206 CJE=1e-11 VJE=0.75 MJE=0.33 TF=1e-09 XTF=1\n+ VTF=10 ITF=0.01 CJC=1e-11 VJC=0.75 MJC=0.33 XCJC=0.9 FC=0.5\n+ CJS=0 VJS=0.75 MJS=0.5 TR=1e-07 PTF=0 Vceo=300 Icrating=0.5A\n+ mfg=OnSemi)
TEXT -9096 1936 Left 2 !.model 1N4007 D(IS=7.02767n RS=0.0341512 N=1.80803 \n+ EG=1.05743 XTI=5 BV=1000 IBV=5e-08 CJO=1e-11 VJ=0.7 \n+ M=0.5 FC=0.5 TT=1e-07 mfg=OnSemi type=silicon)
TEXT -8664 1480 Left 2 !.ac dec 100 1 10meg
TEXT -8664 1056 Left 2 !.meas AC f20hz find v(out) at=20\n.meas AC f50hz find v(out) at=50.05\n.meas AC f70hz find v(out) at=70\n.meas AC f100hz find v(out) at=100\n.meas AC f200hz find v(out) at=200\n.meas AC f500hz find v(out) at=500\n.meas AC f700hz find v(out) at=700\n.meas AC f1000hz find v(out) at=1000\n.meas AC f2000hz find v(out) at=2000\n.meas AC f2122hz find v(out) at=2122\n.meas AC f5000hz find v(out) at=5000\n.meas AC f7000hz find v(out) at=7000\n.meas AC f10000hz find v(out) at=10000\n.meas AC f20000hz find v(out) at=20000
