Version 4
SHEET 1 1248 680
WIRE -112 -64 -240 -64
WIRE 16 -64 -112 -64
WIRE 352 -64 240 -64
WIRE 512 -64 416 -64
WIRE -112 -32 -112 -64
WIRE 16 -32 16 -64
WIRE -240 16 -240 -64
WIRE -112 64 -112 32
WIRE -112 64 -160 64
WIRE 16 64 16 32
WIRE 144 64 16 64
WIRE 240 64 240 -64
WIRE 240 64 144 64
WIRE 320 64 240 64
WIRE 512 64 512 -64
WIRE 512 64 448 64
WIRE 640 64 512 64
WIRE 864 64 640 64
WIRE 1024 64 864 64
WIRE 1184 64 1024 64
WIRE -112 80 -112 64
WIRE 16 80 16 64
WIRE 512 144 512 64
WIRE 640 144 640 64
WIRE -240 176 -240 96
WIRE -112 176 -112 144
WIRE -112 176 -240 176
WIRE 16 176 16 144
WIRE 16 176 -112 176
WIRE 144 256 144 64
WIRE 240 256 240 64
WIRE 1184 256 1184 64
WIRE 384 272 384 128
WIRE 640 272 640 208
WIRE 640 272 384 272
WIRE 1024 272 1024 64
WIRE 384 320 384 272
WIRE 640 320 640 272
WIRE 864 352 864 64
WIRE 384 400 384 384
WIRE 512 400 512 208
WIRE 512 400 384 400
WIRE 384 432 384 400
WIRE 640 432 640 384
WIRE -160 560 -160 64
WIRE 144 560 144 320
WIRE 144 560 -160 560
WIRE 240 560 240 320
WIRE 240 560 144 560
WIRE 384 560 384 496
WIRE 384 560 240 560
WIRE 640 560 640 496
WIRE 640 560 384 560
WIRE 864 560 864 416
WIRE 864 560 640 560
WIRE 1024 560 1024 336
WIRE 1024 560 864 560
WIRE 1184 560 1184 336
WIRE 1184 560 1024 560
FLAG 384 560 0
SYMBOL cap 848 352 R0
SYMATTR InstName C1
SYMATTR Value 100n
SYMBOL diode 416 -80 R90
WINDOW 0 -4 32 VBottom 2
WINDOW 3 36 32 VTop 2
SYMATTR InstName D1
SYMATTR Value 1n4007
SYMBOL r 640 144 R90
SYMATTR InstName R2
SYMATTR Value 150
SYMBOL r 640 320 R90
SYMATTR InstName R3
SYMATTR Value 600
SYMBOL r 640 432 R90
SYMATTR InstName R4
SYMATTR Value 5.1
SYMBOL current 1184 256 R0
SYMATTR InstName I1
SYMATTR Value 1.4
SYMBOL cap 368 432 R0
SYMATTR InstName C2
SYMATTR Value 470n
SYMBOL r 384 320 R90
SYMATTR InstName R5
SYMATTR Value 100
SYMBOL diode 528 208 R180
WINDOW 0 40 44 Left 2
WINDOW 3 39 20 Left 2
SYMATTR InstName D2
SYMATTR Value 1n4007
SYMBOL Reguladores/LM317T 384 80 R0
SYMATTR InstName U1
SYMBOL cap 1008 272 R0
SYMATTR InstName C5
SYMATTR Value 10µ
SYMBOL cap 224 256 R0
SYMATTR InstName C3
SYMATTR Value 15m
SYMATTR SpiceLine Rser=0.4
SYMBOL cap 128 256 R0
SYMATTR InstName C4
SYMATTR Value 10µ
SYMBOL voltage -240 0 R0
WINDOW 3 -184 95 Left 2
SYMATTR Value SINE(0 15.79 60)
SYMATTR InstName V1
SYMATTR SpiceLine Rser=476.2m
SYMBOL schottky 0 -32 R0
WINDOW 0 39 20 Left 2
WINDOW 3 40 44 Left 2
SYMATTR InstName D3
SYMATTR Value B560C
SYMATTR Description Diode
SYMATTR Type diode
SYMBOL schottky -128 80 R0
WINDOW 0 39 20 Left 2
WINDOW 3 40 44 Left 2
SYMATTR InstName D4
SYMATTR Value B560C
SYMATTR Description Diode
SYMATTR Type diode
SYMBOL schottky 32 144 R180
WINDOW 0 24 64 Left 2
WINDOW 3 24 0 Left 2
SYMATTR InstName D5
SYMATTR Value B560C
SYMATTR Description Diode
SYMATTR Type diode
SYMBOL schottky -96 32 R180
WINDOW 0 24 64 Left 2
WINDOW 3 24 0 Left 2
SYMATTR InstName D6
SYMATTR Value B560C
SYMATTR Description Diode
SYMATTR Type diode
TEXT 856 24 Left 2 ;6.3V@1.2A \n+ chega ate 2A numa nice!
TEXT 72 48 Left 2 ;11.25V +- 1V
TEXT 576 -96 Left 2 !.model 1N4007 D(IS=7.02767n RS=0.0341512 N=1.80803 \n+ EG=1.05743 XTI=5 BV=1000 IBV=5e-08 CJO=1e-11 \n+ VJ=0.7 M=0.5 FC=0.5 TT=1e-07 mfg=OnSemi type=silicon)
TEXT 576 -120 Left 2 !.tran 0 200 0 100u
TEXT 576 -144 Left 2 ;.dc V1 0 40 0.1
TEXT -168 -80 Left 2 ;10V@2.1A
