Version 4
SHEET 1 1684 1104
WIRE -752 240 -912 240
WIRE -80 240 -752 240
WIRE 32 240 -80 240
WIRE 256 240 256 224
WIRE 256 240 96 240
WIRE 448 240 256 240
WIRE 256 288 256 240
WIRE -912 336 -912 240
WIRE 448 368 448 240
WIRE -80 416 -80 240
WIRE 256 416 256 352
WIRE 304 416 256 416
WIRE 400 416 368 416
WIRE -912 464 -912 400
WIRE 256 512 256 416
WIRE -752 528 -752 240
WIRE 416 544 416 464
WIRE 448 544 416 544
WIRE 576 544 512 544
WIRE -80 560 -80 480
WIRE -16 560 -80 560
WIRE 112 560 48 560
WIRE 128 560 112 560
WIRE 208 560 192 560
WIRE 416 592 416 544
WIRE -80 624 -80 560
WIRE 112 640 112 560
WIRE 224 656 224 608
WIRE 288 656 224 656
WIRE -752 672 -752 592
WIRE -656 672 -752 672
WIRE -544 672 -592 672
WIRE -432 672 -544 672
WIRE -400 672 -432 672
WIRE -288 672 -336 672
WIRE -240 672 -288 672
WIRE -128 672 -176 672
WIRE 224 688 224 656
WIRE 288 688 288 656
WIRE 416 704 416 656
WIRE -752 736 -752 672
WIRE -544 752 -544 672
WIRE -112 752 -112 720
WIRE -64 752 -112 752
WIRE -112 768 -112 752
WIRE -64 768 -64 752
WIRE 112 768 112 704
WIRE -960 784 -1136 784
WIRE -912 784 -960 784
WIRE -800 784 -848 784
WIRE -288 800 -288 672
WIRE -432 816 -432 672
WIRE 224 816 224 752
WIRE 288 816 288 752
WIRE -1136 848 -1136 784
WIRE -784 864 -784 832
WIRE -720 864 -784 864
WIRE -960 880 -960 784
WIRE -784 880 -784 864
WIRE -720 880 -720 864
WIRE -544 896 -544 816
WIRE -112 896 -112 832
WIRE -64 896 -64 832
WIRE -1136 1008 -1136 928
WIRE -960 1008 -960 944
WIRE -784 1008 -784 944
WIRE -720 1008 -720 944
WIRE -544 1008 -544 960
WIRE -432 1008 -432 880
WIRE -288 1008 -288 864
FLAG 576 544 out
FLAG -784 1008 0
FLAG -1312 832 V+
IOPIN -1312 832 BiDir
FLAG -1312 912 0
FLAG -1136 1008 0
FLAG -960 1008 0
FLAG -112 896 0
FLAG -432 1008 0
FLAG -544 1008 0
FLAG -720 1008 0
FLAG -64 896 0
FLAG 224 816 0
FLAG 112 768 0
FLAG 416 704 0
FLAG 256 224 V+
IOPIN 256 224 BiDir
FLAG 288 816 0
FLAG -912 464 0
FLAG -288 1008 0
SYMBOL r -848 784 R180
SYMATTR InstName R1
SYMATTR Value 1k
SYMBOL voltage -1312 816 R0
SYMATTR InstName V1
SYMATTR Value 300
SYMBOL voltage -1136 832 R0
WINDOW 3 3 152 Left 2
SYMATTR Value SINE(0 10m 1k)
SYMATTR InstName V2
SYMATTR Value2 AC 1
SYMBOL r -960 880 R90
SYMATTR InstName R2
SYMATTR Value 1Meg
SYMBOL r -784 880 R90
SYMATTR InstName R3
SYMATTR Value 1.3k
SYMBOL r -656 672 R0
SYMATTR InstName R6
SYMATTR Value 213k
SYMBOL r -112 768 R90
SYMATTR InstName R7
SYMATTR Value 1.3k
SYMBOL r -752 528 R90
SYMATTR InstName R16
SYMATTR Value 22k
SYMBOL r -80 416 R90
SYMATTR InstName R17
SYMATTR Value 22k
SYMBOL r -544 752 R90
SYMATTR InstName R5
SYMATTR Value 31.9k
SYMBOL cap -528 960 R180
WINDOW 0 24 56 Left 2
WINDOW 3 24 8 Left 2
SYMATTR InstName C1
SYMATTR Value 9.94n
SYMBOL cap -416 880 R180
WINDOW 0 24 56 Left 2
WINDOW 3 24 8 Left 2
SYMATTR InstName C2
SYMATTR Value 3.41n
SYMBOL NormanKoren/12AU7 -752 784 R0
SYMATTR InstName U3
SYMBOL NormanKoren/12AU7 -80 672 R0
SYMATTR InstName U1
SYMBOL r -176 672 R180
SYMATTR InstName R4
SYMATTR Value 1k
SYMBOL cap 48 544 R90
WINDOW 0 0 32 VBottom 2
WINDOW 3 32 32 VTop 2
SYMATTR InstName C4
SYMATTR Value 1µ
SYMBOL cap -736 880 R0
SYMATTR InstName C5
SYMATTR Value 220µ
SYMBOL cap -80 768 R0
SYMATTR InstName C6
SYMATTR Value 220µ
SYMBOL r 224 688 R90
SYMATTR InstName R8
SYMATTR Value 1.6k
SYMBOL r 256 288 R90
SYMATTR InstName R9
SYMATTR Value 22k
SYMBOL r 416 592 R90
SYMATTR InstName R10
SYMATTR Value 22k
SYMBOL r 112 640 R90
SYMATTR InstName R11
SYMATTR Value 1Meg
SYMBOL NormanKoren/12AU7 256 560 R0
SYMATTR InstName U2
SYMBOL NormanKoren/12AU7 448 416 R0
SYMATTR InstName U4
SYMBOL cap 304 752 R180
WINDOW 0 24 56 Left 2
WINDOW 3 24 8 Left 2
SYMATTR InstName C7
SYMATTR Value 220µ
SYMBOL cap 512 528 R90
WINDOW 0 0 32 VBottom 2
WINDOW 3 32 32 VTop 2
SYMATTR InstName C8
SYMATTR Value 1µ
SYMBOL cap -928 336 R0
SYMATTR InstName C9
SYMATTR Value 47µ
SYMBOL r 96 240 R180
SYMATTR InstName R12
SYMATTR Value 5k
SYMBOL cap -336 656 R90
WINDOW 0 0 32 VBottom 2
WINDOW 3 32 32 VTop 2
SYMATTR InstName C3
SYMATTR Value 1µ
SYMBOL r -288 800 R90
SYMATTR InstName R13
SYMATTR Value 1Meg
SYMBOL r 128 560 R0
SYMATTR InstName R14
SYMATTR Value 1k
SYMBOL r 304 416 R0
SYMATTR InstName R15
SYMATTR Value 1k
TEXT 1224 -120 Left 2 !.tran 0 2 1.9 10u
TEXT 1224 -96 Left 2 !.OPTIONS numdgt=7\n.OPTIONS plotwinsize=0\n.four 1k 10 V(out)\n.four 1k 10 V(out2)
TEXT 792 -304 Left 2 !.MODEL SFH4346 D	\n+	IS=	4.37E-14\n+	N=	1.806132146\n+	RS=	2.129475292\n+	IKF=	164.2918925\n+	IBV =	2.00E-07\n+	NBV =	105\n+	IBVL =	1.00E-06\n+	NBVL =	20\n+	BV =	28\n+	CJO =	1.67E-11\n+	TT =	8.00E-09\n+	EG =	1.3
TEXT 792 40 Left 2 !.model MJE340 NPN(IS=1.03431e-13 BF=172.974 NF=0.939811 VAF=27.3487\n+ IKF=0.0260146 ISE=4.48447e-11 NE=1.61605 BR=16.6725\n+ NR=0.796984 VAR=6.11596 IKR=0.10004 ISC=9.99914e-14\n+ NC=1.99995 RB=1.47761 IRB=0.2 RBM=1.47761 RE=0.0001\n+ RC=1.42228 XTB=2.70726 XTI=1 EG=1.206 CJE=1e-11\n+ VJE=0.75 MJE=0.33 TF=1e-09 XTF=1 VTF=10 ITF=0.01\n+ CJC=1e-11 VJC=0.75 MJC=0.33 XCJC=0.9 FC=0.5 CJS=0\n+ VJS=0.75 MJS=0.5 TR=1e-07 PTF=0 Vceo=300 Icrating=0.5A\n+ mfg=OnSemi)
TEXT 792 264 Left 2 !.MODEL MJE350 PNP(IS=6.01619f BF=157.387 NF=0.910131 VAF=23.273\n+ IKF=0.0564808 ISE=4.48479p NE=1.58557 BR=0.1 NR=1.03823\n+ VAR=4.14543 IKR=0.0999978 ISC=1.00199e-13 NC=1.98851 RB=0.1\n+ IRB=0.202965 RBM=0.1 RE=0.0710678 RC=0.355339 XTB=1.03638\n+ XTI=3.8424 EG=1.206 CJE=1e-11 VJE=0.75 MJE=0.33 TF=1e-09 XTF=1\n+ VTF=10 ITF=0.01 CJC=1e-11 VJC=0.75 MJC=0.33 XCJC=0.9 FC=0.5\n+ CJS=0 VJS=0.75 MJS=0.5 TR=1e-07 PTF=0 Vceo=300 Icrating=0.5A\n+ mfg=OnSemi)
TEXT 792 448 Left 2 !.model 1N4007 D(IS=7.02767n RS=0.0341512 N=1.80803 \n+ EG=1.05743 XTI=5 BV=1000 IBV=5e-08 CJO=1e-11 VJ=0.7 \n+ M=0.5 FC=0.5 TT=1e-07 mfg=OnSemi type=silicon)
TEXT 1224 -8 Left 2 ;.ac dec 100 1 10meg
TEXT 1224 -432 Left 2 !.meas AC f20hz find v(out) at=20\n.meas AC f50hz find v(out) at=50.05\n.meas AC f70hz find v(out) at=70\n.meas AC f100hz find v(out) at=100\n.meas AC f200hz find v(out) at=200\n.meas AC f500hz find v(out) at=500\n.meas AC f700hz find v(out) at=700\n.meas AC f1000hz find v(out) at=1000\n.meas AC f2000hz find v(out) at=2000\n.meas AC f2122hz find v(out) at=2122\n.meas AC f5000hz find v(out) at=5000\n.meas AC f7000hz find v(out) at=7000\n.meas AC f10000hz find v(out) at=10000\n.meas AC f20000hz find v(out) at=20000
TEXT 792 520 Left 2 !.meas tran vout rms v(out)\n.meas tran vin rms v(n006)\n.meas tran gain param vout/vin
