Version 4
SHEET 1 1724 868
WIRE 944 112 400 112
WIRE 1248 112 1008 112
WIRE -48 224 -176 224
WIRE 944 224 848 224
WIRE 1120 224 1008 224
WIRE -176 240 -176 224
WIRE -176 240 -352 240
WIRE -176 256 -176 240
WIRE -48 256 -48 224
WIRE -352 288 -352 240
WIRE -176 352 -176 320
WIRE -176 352 -224 352
WIRE -48 352 -48 320
WIRE 80 352 -48 352
WIRE 176 352 80 352
WIRE 304 352 176 352
WIRE 448 352 304 352
WIRE 608 352 544 352
WIRE 688 352 608 352
WIRE 848 352 848 224
WIRE 848 352 752 352
WIRE 928 352 848 352
WIRE 1120 352 1120 224
WIRE 1120 352 1056 352
WIRE 1248 352 1248 112
WIRE 1248 352 1120 352
WIRE 1360 352 1248 352
WIRE 1472 352 1360 352
WIRE 1632 352 1472 352
WIRE -176 368 -176 352
WIRE -48 368 -48 352
WIRE 608 384 608 352
WIRE 304 416 304 352
WIRE -352 432 -352 368
WIRE -176 432 -352 432
WIRE 1120 432 1120 352
WIRE 1248 432 1248 352
WIRE 528 448 528 400
WIRE 560 448 528 448
WIRE 752 448 656 448
WIRE 848 448 848 352
WIRE 848 448 752 448
WIRE -176 464 -176 432
WIRE -48 464 -48 432
WIRE -48 464 -176 464
WIRE 80 464 80 352
WIRE 176 464 176 352
WIRE 752 480 752 448
WIRE 848 480 848 448
WIRE 304 528 304 480
WIRE 400 528 400 112
WIRE 400 528 304 528
WIRE 528 528 528 448
WIRE 528 528 400 528
WIRE 1632 544 1632 352
WIRE 400 560 400 528
WIRE 528 560 528 528
WIRE 992 560 992 416
WIRE 1120 560 1120 496
WIRE 1120 560 992 560
WIRE 1248 560 1248 496
WIRE 1248 560 1120 560
WIRE 1360 640 1360 352
WIRE 1472 640 1472 352
WIRE 992 672 992 560
WIRE 1248 672 1248 560
WIRE -224 848 -224 352
WIRE 80 848 80 528
WIRE 80 848 -224 848
WIRE 176 848 176 528
WIRE 176 848 80 848
WIRE 400 848 400 624
WIRE 400 848 176 848
WIRE 528 848 528 624
WIRE 528 848 400 848
WIRE 752 848 752 544
WIRE 752 848 528 848
WIRE 848 848 848 544
WIRE 848 848 752 848
WIRE 992 848 992 736
WIRE 992 848 848 848
WIRE 1248 848 1248 736
WIRE 1248 848 992 848
WIRE 1360 848 1360 704
WIRE 1360 848 1248 848
WIRE 1472 848 1472 704
WIRE 1472 848 1360 848
WIRE 1632 848 1632 624
WIRE 1632 848 1472 848
FLAG 176 848 0
SYMBOL nmos 448 400 R270
SYMATTR InstName M1
SYMATTR Value STW11NM80
SYMBOL r 304 480 R270
SYMATTR InstName R1
SYMATTR Value 220k
SYMBOL cap 512 560 R0
SYMATTR InstName C2
SYMATTR Value 4.7µ
SYMATTR SpiceLine Rser=100u
SYMBOL cap 832 480 R0
SYMATTR InstName C3
SYMATTR Value 4.7µ
SYMBOL cap 1456 640 R0
SYMATTR InstName C5
SYMATTR Value 10µ
SYMBOL zener 1008 208 R90
WINDOW 0 -4 32 VBottom 2
WINDOW 3 36 32 VTop 2
SYMATTR InstName D1
SYMATTR Value KDZ15B
SYMATTR Description Diode
SYMATTR Type diode
SYMBOL r 1248 432 R90
SYMATTR InstName R2
SYMATTR Value 220
SYMBOL r 1248 672 R90
SYMATTR InstName R3
SYMATTR Value 52.121k
SYMBOL diode 1136 496 R180
WINDOW 0 24 64 Left 2
WINDOW 3 24 0 Left 2
SYMATTR InstName D2
SYMATTR Value 1N4148
SYMBOL current 1632 544 R0
SYMATTR InstName I1
SYMATTR Value 20m
SYMBOL Reguladores/LM317T 992 368 R0
SYMATTR InstName U1
SYMBOL zener 1008 96 R90
WINDOW 0 -4 32 VBottom 2
WINDOW 3 36 32 VTop 2
SYMATTR InstName D3
SYMATTR Value KDZ15B
SYMATTR Description Diode
SYMATTR Type diode
SYMBOL npn 608 400 M90
SYMATTR InstName Q1
SYMBOL r 688 352 R0
SYMATTR InstName R4
SYMATTR Value 1
SYMBOL cap 384 560 R0
SYMATTR InstName C7
SYMATTR Value 470n
SYMBOL cap 736 480 R0
SYMATTR InstName C8
SYMATTR Value 470n
SYMBOL cap 1344 640 R0
SYMATTR InstName C9
SYMATTR Value 1µ
SYMBOL cap 976 672 R0
SYMATTR InstName C10
SYMATTR Value 100µ
SYMBOL cap 96 528 R180
WINDOW 0 24 56 Left 2
WINDOW 3 24 8 Left 2
SYMATTR InstName C1
SYMATTR Value 47µ
SYMATTR SpiceLine Rser=4.3
SYMBOL voltage -352 272 R0
SYMATTR InstName V1
SYMATTR Value SINE(0 376.47 60)
SYMATTR SpiceLine Rser=480
SYMBOL diode -192 368 R0
SYMATTR InstName D4
SYMATTR Value 1n4007
SYMBOL cap 160 464 R0
SYMATTR InstName C4
SYMATTR Value 180n
SYMBOL diode -64 256 R0
SYMATTR InstName D5
SYMATTR Value 1n4007
SYMBOL diode -32 432 R180
WINDOW 0 40 44 Left 2
WINDOW 3 39 20 Left 2
SYMATTR InstName D6
SYMATTR Value 1n4007
SYMBOL diode -160 320 R180
WINDOW 0 40 44 Left 2
WINDOW 3 39 20 Left 2
SYMATTR InstName D7
SYMATTR Value 1n4007
TEXT 1536 304 Left 2 ;300V@10mA
TEXT 136 320 Left 2 ;320V +- 2.5V
TEXT 624 -208 Left 2 !.model 1N4007 D(IS=7.02767n RS=0.0341512 N=1.80803 \n+ EG=1.05743 XTI=5 BV=1000 IBV=5e-08 CJO=1e-11 \n+ VJ=0.7 M=0.5 FC=0.5 TT=1e-07 mfg=OnSemi type=silicon)
TEXT 624 -232 Left 2 !.tran 0 200 0 100u
TEXT 624 -256 Left 2 ;.dc V1 0 400 1
TEXT -296 192 Left 2 ;267V@50mA
