Version 4
SHEET 1 1652 784
WIRE -336 208 -336 144
WIRE 272 208 272 144
WIRE -960 224 -960 160
WIRE 688 304 688 208
WIRE -752 336 -752 160
WIRE -336 352 -336 272
WIRE -272 352 -336 352
WIRE -160 352 -208 352
WIRE 272 352 272 272
WIRE 336 352 272 352
WIRE 464 352 400 352
WIRE 528 352 464 352
WIRE 640 352 592 352
WIRE -1072 384 -1168 384
WIRE -960 384 -960 288
WIRE -960 384 -1008 384
WIRE -912 384 -960 384
WIRE -800 384 -848 384
WIRE 464 384 464 352
WIRE -336 416 -336 352
WIRE 272 416 272 352
WIRE -1168 448 -1168 384
WIRE -784 464 -784 432
WIRE -688 464 -784 464
WIRE -544 464 -624 464
WIRE -496 464 -544 464
WIRE -384 464 -432 464
WIRE -160 464 -160 352
WIRE -80 464 -160 464
WIRE 64 464 -16 464
WIRE 112 464 64 464
WIRE 224 464 176 464
WIRE -960 480 -960 384
WIRE -784 480 -784 464
WIRE 656 496 656 400
WIRE 704 496 656 496
WIRE 832 496 768 496
WIRE 464 512 464 448
WIRE 464 512 400 512
WIRE 528 512 464 512
WIRE -160 528 -160 464
WIRE 400 528 400 512
WIRE 656 528 656 496
WIRE -544 560 -544 464
WIRE -368 560 -368 512
WIRE 64 560 64 464
WIRE 240 560 240 512
WIRE 528 560 528 512
WIRE -1168 608 -1168 528
WIRE -960 608 -960 544
WIRE -784 608 -784 544
WIRE -160 656 -160 592
WIRE -544 688 -544 624
WIRE -368 688 -368 624
WIRE 64 688 64 624
WIRE 240 688 240 624
WIRE 400 688 400 592
WIRE 528 688 528 624
WIRE 656 688 656 592
FLAG 832 496 out
FLAG -368 688 0
FLAG -1344 432 V+
IOPIN -1344 432 BiDir
FLAG -1344 512 0
FLAG -1168 608 0
FLAG -544 688 0
FLAG 64 688 0
FLAG -160 656 0
FLAG 240 688 0
FLAG 400 688 0
FLAG 656 688 0
FLAG 688 208 V+
IOPIN 688 208 BiDir
FLAG 528 688 0
FLAG -752 160 V+
IOPIN -752 160 BiDir
FLAG 64 464 out1
FLAG -960 608 0
FLAG -784 608 0
FLAG -960 160 V+
IOPIN -960 160 BiDir
FLAG -336 144 V+
IOPIN -336 144 BiDir
FLAG 272 144 V+
IOPIN 272 144 BiDir
SYMBOL NormanKoren/12AX7 -336 464 R0
SYMATTR InstName U1
SYMBOL r -432 464 R180
SYMATTR InstName R4
SYMATTR Value 1k
SYMBOL cap -16 448 R90
WINDOW 0 0 32 VBottom 2
WINDOW 3 32 32 VTop 2
SYMATTR InstName C1
SYMATTR Value 100n
SYMBOL voltage -1344 416 R0
SYMATTR InstName V1
SYMATTR Value 300
SYMBOL voltage -1168 432 R0
SYMATTR InstName V2
SYMATTR Value SINE(0 10m 1k)
SYMATTR Value2 AC 1
SYMBOL r -544 560 R90
SYMATTR InstName R5
SYMATTR Value 1Meg
SYMBOL r -368 560 R90
SYMATTR InstName R6
SYMATTR Value 1k
SYMBOL NormanKoren/12AX7 272 464 R0
SYMATTR InstName U2
SYMBOL r 176 464 R180
SYMATTR InstName R10
SYMATTR Value 1k
SYMBOL r 64 560 R90
SYMATTR InstName R11
SYMATTR Value 1Meg
SYMBOL r -272 352 R0
SYMATTR InstName R12
SYMATTR Value 249k
SYMBOL cap -176 528 R0
SYMATTR InstName C2
SYMATTR Value 250p
SYMBOL r 240 560 R90
SYMATTR InstName R13
SYMATTR Value 1k
SYMBOL NormanKoren/12AX7 688 352 R0
SYMATTR InstName U3
SYMBOL r 400 352 R180
SYMATTR InstName R14
SYMATTR Value 126k
SYMBOL cap 384 528 R0
SYMATTR InstName C5
SYMATTR Value 15n
SYMBOL r 464 384 R90
SYMATTR InstName R15
SYMATTR Value 20895
SYMBOL r 528 352 R0
SYMATTR InstName R16
SYMATTR Value 1k
SYMBOL NormanKoren/12AX7 -752 384 R0
SYMATTR InstName U4
SYMBOL r -848 384 R180
SYMATTR InstName R17
SYMATTR Value 1k
SYMBOL r -960 480 R90
SYMATTR InstName R18
SYMATTR Value 1Meg
SYMBOL r -784 480 R90
SYMATTR InstName R19
SYMATTR Value 100k
SYMBOL cap -1008 368 R90
WINDOW 0 0 32 VBottom 2
WINDOW 3 32 32 VTop 2
SYMATTR InstName C6
SYMATTR Value 100n
SYMBOL cap -624 448 R90
WINDOW 0 0 32 VBottom 2
WINDOW 3 32 32 VTop 2
SYMATTR InstName C7
SYMATTR Value 0.1µ
SYMBOL cap 512 560 R0
SYMATTR InstName C8
SYMATTR Value 220p
SYMBOL r 656 528 R90
SYMATTR InstName R21
SYMATTR Value 100k
SYMBOL r -960 224 R90
SYMATTR InstName R1
SYMATTR Value 1.8Meg
SYMBOL r -336 208 R90
SYMATTR InstName R2
SYMATTR Value 100k
SYMBOL r 272 208 R90
SYMATTR InstName R3
SYMATTR Value 100k
SYMBOL cap 768 480 R90
WINDOW 0 0 32 VBottom 2
WINDOW 3 32 32 VTop 2
SYMATTR InstName C3
SYMATTR Value 1µ
TEXT 1192 -520 Left 2 !.tran 0 2 1.9 10u
TEXT 1192 -496 Left 2 !.OPTIONS numdgt=7\n.OPTIONS plotwinsize=0\n.four 1k 10 V(out)\n.four 1k 10 V(out2)
TEXT 760 -704 Left 2 !.MODEL SFH4346 D	\n+	IS=	4.37E-14\n+	N=	1.806132146\n+	RS=	2.129475292\n+	IKF=	164.2918925\n+	IBV =	2.00E-07\n+	NBV =	105\n+	IBVL =	1.00E-06\n+	NBVL =	20\n+	BV =	28\n+	CJO =	1.67E-11\n+	TT =	8.00E-09\n+	EG =	1.3
TEXT 760 -360 Left 2 !.model MJE340 NPN(IS=1.03431e-13 BF=172.974 NF=0.939811 VAF=27.3487\n+ IKF=0.0260146 ISE=4.48447e-11 NE=1.61605 BR=16.6725\n+ NR=0.796984 VAR=6.11596 IKR=0.10004 ISC=9.99914e-14\n+ NC=1.99995 RB=1.47761 IRB=0.2 RBM=1.47761 RE=0.0001\n+ RC=1.42228 XTB=2.70726 XTI=1 EG=1.206 CJE=1e-11\n+ VJE=0.75 MJE=0.33 TF=1e-09 XTF=1 VTF=10 ITF=0.01\n+ CJC=1e-11 VJC=0.75 MJC=0.33 XCJC=0.9 FC=0.5 CJS=0\n+ VJS=0.75 MJS=0.5 TR=1e-07 PTF=0 Vceo=300 Icrating=0.5A\n+ mfg=OnSemi)
TEXT 760 -136 Left 2 !.MODEL MJE350 PNP(IS=6.01619f BF=157.387 NF=0.910131 VAF=23.273\n+ IKF=0.0564808 ISE=4.48479p NE=1.58557 BR=0.1 NR=1.03823\n+ VAR=4.14543 IKR=0.0999978 ISC=1.00199e-13 NC=1.98851 RB=0.1\n+ IRB=0.202965 RBM=0.1 RE=0.0710678 RC=0.355339 XTB=1.03638\n+ XTI=3.8424 EG=1.206 CJE=1e-11 VJE=0.75 MJE=0.33 TF=1e-09 XTF=1\n+ VTF=10 ITF=0.01 CJC=1e-11 VJC=0.75 MJC=0.33 XCJC=0.9 FC=0.5\n+ CJS=0 VJS=0.75 MJS=0.5 TR=1e-07 PTF=0 Vceo=300 Icrating=0.5A\n+ mfg=OnSemi)
TEXT 760 48 Left 2 !.model 1N4007 D(IS=7.02767n RS=0.0341512 N=1.80803 \n+ EG=1.05743 XTI=5 BV=1000 IBV=5e-08 CJO=1e-11 VJ=0.7 \n+ M=0.5 FC=0.5 TT=1e-07 mfg=OnSemi type=silicon)
TEXT 1192 -408 Left 2 ;.ac dec 100 1 10meg
TEXT 1192 -832 Left 2 !.meas AC f20hz find v(out) at=20\n.meas AC f50hz find v(out) at=50.05\n.meas AC f70hz find v(out) at=70\n.meas AC f100hz find v(out) at=100\n.meas AC f200hz find v(out) at=200\n.meas AC f500hz find v(out) at=500\n.meas AC f700hz find v(out) at=700\n.meas AC f1000hz find v(out) at=1000\n.meas AC f2000hz find v(out) at=2000\n.meas AC f2122hz find v(out) at=2122\n.meas AC f5000hz find v(out) at=5000\n.meas AC f7000hz find v(out) at=7000\n.meas AC f10000hz find v(out) at=10000\n.meas AC f20000hz find v(out) at=20000
TEXT 760 120 Left 2 !.meas tran vout rms v(out)\n.meas tran vin rms v(n006)\n.meas tran gain param vout/vin
