Version 4
SHEET 1 1560 1016
WIRE 176 80 32 80
WIRE 672 80 176 80
WIRE 864 80 672 80
WIRE 1120 80 928 80
WIRE 1216 80 1120 80
WIRE 1312 80 1216 80
WIRE 1488 80 1376 80
WIRE 1488 160 1488 80
WIRE 32 176 32 80
WIRE 176 176 176 80
WIRE 672 176 672 80
WIRE 1216 176 1216 80
WIRE 32 288 32 240
WIRE 176 288 176 240
WIRE 288 288 176 288
WIRE 432 288 352 288
WIRE 672 288 672 240
WIRE 912 288 672 288
WIRE 1216 288 1216 240
WIRE 1488 288 1488 240
WIRE 176 336 176 288
WIRE 672 336 672 288
WIRE 1120 336 1120 80
WIRE -128 384 -272 384
WIRE 32 384 -128 384
WIRE 128 384 32 384
WIRE 432 384 432 288
WIRE 624 384 432 384
WIRE 912 384 912 288
WIRE 1072 384 912 384
WIRE 32 416 32 384
WIRE -272 448 -272 384
WIRE -128 464 -128 384
WIRE 432 464 432 384
WIRE 640 480 640 432
WIRE 784 480 640 480
WIRE 1088 480 1088 432
WIRE 1088 480 848 480
WIRE 1184 480 1088 480
WIRE 1344 480 1248 480
WIRE 32 496 32 480
WIRE 144 496 144 432
WIRE 144 496 32 496
WIRE 144 512 144 496
WIRE 640 512 640 480
WIRE 1088 512 1088 480
WIRE 1344 512 1344 480
WIRE 32 528 32 496
WIRE -272 576 -272 528
WIRE -128 576 -128 528
WIRE 432 576 432 528
WIRE 32 624 32 592
WIRE 144 624 144 576
WIRE 144 624 32 624
WIRE 1088 624 1088 576
WIRE 1344 624 1344 576
WIRE 640 640 640 576
WIRE 144 656 144 624
WIRE 560 736 448 736
WIRE 736 736 624 736
WIRE 912 736 912 608
WIRE 912 736 800 736
WIRE 144 768 144 720
WIRE 304 816 304 624
WIRE 448 816 448 736
WIRE 448 816 304 816
WIRE 560 816 448 816
WIRE 736 816 624 816
WIRE 912 816 912 736
WIRE 912 816 800 816
WIRE 448 880 448 816
WIRE 496 880 448 880
WIRE 656 880 560 880
WIRE 768 880 720 880
WIRE 800 880 768 880
WIRE 912 880 912 816
WIRE 912 880 864 880
WIRE 768 960 768 880
WIRE 800 960 768 960
WIRE 912 960 912 880
WIRE 912 960 864 960
FLAG 144 768 0
FLAG 432 576 0
FLAG -128 576 0
FLAG 1088 624 0
FLAG 640 640 0
FLAG 1344 624 0
FLAG 1216 288 0
FLAG 32 288 0
FLAG 1488 288 0
FLAG -272 576 0
FLAG 1344 480 out
SYMBOL NormanKoren/12AX7 176 384 R0
SYMATTR InstName U1
SYMBOL NormanKoren/12AX7 672 384 R0
SYMATTR InstName U2
SYMBOL NormanKoren/12AX7 1120 384 R0
SYMATTR InstName U3
SYMBOL r 144 512 R90
SYMATTR InstName R1
SYMATTR Value 2200
SYMBOL r 144 656 R90
SYMATTR InstName R2
SYMATTR Value 1800
SYMBOL r 432 464 R90
SYMATTR InstName R3
SYMATTR Value 1Meg
SYMBOL r -128 464 R90
SYMATTR InstName R4
SYMATTR Value 47k
SYMBOL r 176 176 R90
SYMATTR InstName R5
SYMATTR Value 300k
SYMBOL r 672 176 R90
SYMATTR InstName R6
SYMATTR Value 120k
SYMBOL r 640 512 R90
SYMATTR InstName R7
SYMATTR Value 820
SYMBOL r 1088 512 R90
SYMATTR InstName R8
SYMATTR Value 330k
SYMBOL r 864 80 R0
SYMATTR InstName R9
SYMATTR Value 10k
SYMBOL r 1312 80 R0
SYMATTR InstName R10
SYMATTR Value 2.7k
SYMBOL cap 16 176 R0
SYMATTR InstName C1
SYMATTR Value 40µ
SYMBOL cap 16 416 R0
SYMATTR InstName C2
SYMATTR Value 39p
SYMBOL cap 16 528 R0
SYMATTR InstName C3
SYMATTR Value 50µ
SYMBOL cap 352 272 R90
WINDOW 0 0 32 VBottom 2
WINDOW 3 32 32 VTop 2
SYMATTR InstName C4
SYMATTR Value 10n
SYMBOL r 784 480 R0
SYMATTR InstName R11
SYMATTR Value 330k
SYMBOL cap 1248 464 R90
WINDOW 0 0 32 VBottom 2
WINDOW 3 32 32 VTop 2
SYMATTR InstName C5
SYMATTR Value 470n
SYMBOL r 1344 512 R90
SYMATTR InstName R12
SYMATTR Value 1Meg
SYMBOL cap 1200 176 R0
SYMATTR InstName C6
SYMATTR Value 40µ
SYMBOL voltage 1488 144 R0
SYMATTR InstName V1
SYMATTR Value 340
SYMBOL voltage -272 432 R0
SYMATTR InstName V3
SYMATTR Value SINE(0 10m 1k)
SYMATTR Value2 AC 1
SYMBOL cap 896 544 R0
SYMATTR InstName C7
SYMATTR Value 220n
SYMBOL r 800 736 R180
SYMATTR InstName R13
SYMATTR Value 180k
SYMBOL r 624 736 R180
SYMATTR InstName R14
SYMATTR Value 22Meg
SYMBOL r 864 880 R180
SYMATTR InstName R15
SYMATTR Value 4.7Meg
SYMBOL r 656 880 R0
SYMATTR InstName R16
SYMATTR Value 1.8Meg
SYMBOL r 496 880 R0
SYMATTR InstName R17
SYMATTR Value 180k
SYMBOL cap 560 832 R270
WINDOW 0 32 32 VTop 2
WINDOW 3 0 32 VBottom 2
SYMATTR InstName C8
SYMATTR Value 400p
SYMBOL cap 736 832 R270
WINDOW 0 32 32 VTop 2
WINDOW 3 0 32 VBottom 2
SYMATTR InstName C9
SYMATTR Value 1.2n
SYMBOL cap 864 944 R90
WINDOW 0 0 32 VBottom 2
WINDOW 3 32 32 VTop 2
SYMATTR InstName C10
SYMATTR Value 280p
TEXT 344 232 Left 2 ;.tran 0 2 1.99 10u
TEXT 344 208 Left 2 !.ac dec 100 1 10meg
TEXT 344 120 Left 2 !.OPTIONS numdgt=7\n.OPTIONS plotwinsize=0\n.four 1k 10 V(teste)\n.four 1k 10 V(n004)
