Version 4
SHEET 1 3016 1736
WIRE 2288 832 2192 832
WIRE 2288 960 2288 832
WIRE 2496 832 2288 832
WIRE 2496 1072 2496 832
WIRE 2704 832 2496 832
WIRE 2704 1072 2704 832
WIRE 1392 1072 1392 832
WIRE 1552 832 1392 832
WIRE 1552 1072 1552 832
WIRE 1824 832 1552 832
WIRE 1824 944 1824 832
WIRE 1888 832 1824 832
WIRE 2048 1024 1952 1024
WIRE 2048 832 2048 1024
WIRE 1968 832 2048 832
WIRE 2128 832 2048 832
WIRE 2288 1344 2288 1232
WIRE 2496 1344 2496 1136
WIRE 2704 1344 2704 1152
WIRE 2048 1344 2048 1328
WIRE 1824 1344 1824 1232
WIRE 1552 1344 1552 1136
WIRE 1392 1344 1392 1152
WIRE 2048 1168 2048 1152
WIRE 2016 1152 2048 1152
WIRE 1952 1152 2016 1152
WIRE 2288 1088 1952 1088
WIRE 2288 1152 2288 1088
WIRE 2288 1040 2288 1088
WIRE 2048 1264 2048 1248
FLAG 2704 832 OUT
FLAG 1392 832 IN
FLAG 2048 832 SW
FLAG 2288 1344 GND
FLAG 2496 1344 GND
FLAG 2704 1344 GND
FLAG 2048 1344 GND
FLAG 1824 1344 GND
FLAG 1552 1344 GND
FLAG 1392 1344 GND
FLAG 2016 1152 VC
SYMBOL LOAD2 2704 1072 R0
SYMATTR InstName Iload
SYMATTR Value step(0.005 0.045 0.005)
SYMBOL IND 1872 848 R270
WINDOW 0 32 56 VTop 0
WINDOW 3 5 56 VBottom 0
SYMATTR InstName L1
SYMATTR Value 100
SYMATTR SpiceLine Rser=0.085
SYMBOL schottky 2128 848 R270
WINDOW 0 32 32 VTop 0
WINDOW 3 0 32 VBottom 0
SYMATTR InstName D1
SYMATTR Value MBRS140
SYMBOL RES 2272 944 R0
SYMATTR InstName R1
SYMATTR Value 12.1K
SYMBOL RES 2272 1136 R0
SYMATTR InstName R2
SYMATTR Value 1.4K
SYMBOL RES 2032 1152 R0
SYMATTR InstName R3
SYMATTR Value 1K
SYMBOL CAP 2480 1072 R0
SYMATTR InstName C2
SYMATTR Value 1000
SYMBOL CAP 1536 1072 R0
SYMATTR InstName C1
SYMATTR Value 100
SYMBOL CAP 2032 1264 R0
SYMATTR InstName C3
SYMATTR Value 1
SYMBOL VOLTAGE 1392 1056 R0
SYMATTR InstName V1
SYMATTR Value 5V
SYMATTR SpiceLine Rser=0.1
SYMBOL D:\xp\lib\sym\PowerProducts\LT1070 1824 1088 R0
SYMATTR InstName U1
TEXT 1384 1464 Left 0 !..tran 100ms step
TEXT 1384 1496 Left 0 !..ic V(out)=11.95
TEXT 1696 1496 Left 0 !.options flagloads
text 1384 1544 Left 0 !..save V(out) I(L1) dialogbox
