Version 4
SHEET 1 1988 992
WIRE -112 -160 -224 -160
WIRE 0 -160 -112 -160
WIRE 192 -160 0 -160
WIRE 304 -160 192 -160
WIRE 400 -160 304 -160
WIRE 496 -160 400 -160
WIRE -224 -144 -224 -160
WIRE 304 -144 304 -160
WIRE 400 -144 400 -160
WIRE -112 -128 -112 -160
WIRE 496 -112 496 -160
WIRE 624 -112 496 -112
WIRE 0 -80 0 -160
WIRE -224 -48 -224 -64
WIRE -112 -48 -112 -64
WIRE 304 -48 304 -80
WIRE 400 -48 400 -64
WIRE 400 -48 304 -48
WIRE 400 -32 400 -48
WIRE 816 -16 752 -16
WIRE 928 -16 880 -16
WIRE 1040 -16 928 -16
WIRE 1152 -16 1040 -16
WIRE 1152 16 1152 -16
WIRE 192 32 192 -160
WIRE 928 32 928 -16
WIRE 1040 32 1040 -16
WIRE 400 48 400 32
WIRE 496 48 400 48
WIRE 624 48 496 48
WIRE -112 96 -160 96
WIRE 0 96 0 0
WIRE 0 96 -32 96
WIRE 32 96 0 96
WIRE 384 96 352 96
WIRE 496 96 496 48
WIRE 496 96 464 96
WIRE 928 144 928 96
WIRE 928 144 752 144
WIRE 1040 144 1040 96
WIRE 1040 144 928 144
WIRE 1152 144 1152 96
WIRE 1152 144 1040 144
WIRE -64 176 -160 176
WIRE 32 176 16 176
WIRE 496 176 496 96
WIRE 496 176 352 176
WIRE 1040 176 1040 144
WIRE -112 256 -160 256
WIRE 32 256 -32 256
WIRE 368 256 352 256
WIRE 464 256 448 256
WIRE -144 336 -160 336
WIRE -48 336 -64 336
WIRE 32 336 16 336
WIRE 368 336 352 336
WIRE 464 336 432 336
WIRE 128 416 128 400
WIRE 128 496 128 480
WIRE 256 496 256 400
FLAG 256 496 0
FLAG 128 496 0
FLAG -160 336 0
FLAG -160 176 0
FLAG -160 256 0
FLAG -224 -48 0
FLAG 464 336 0
FLAG 464 256 0
FLAG -224 -160 IN
FLAG 1152 -16 OUT
FLAG -160 96 0
FLAG -112 -48 0
FLAG 1040 176 0
SYMBOL PowerProducts\\LT3573 192 208 R0
SYMATTR InstName U1
SYMBOL res -16 240 R90
WINDOW 0 0 56 VBottom 0
WINDOW 3 32 56 VTop 0
SYMATTR InstName R1
SYMATTR Value 10K
SYMBOL res 32 160 R90
WINDOW 0 0 56 VBottom 0
WINDOW 3 32 56 VTop 0
SYMATTR InstName R2
SYMATTR Value 28.7K
SYMBOL voltage -224 -160 R0
WINDOW 123 24 146 Left 0
WINDOW 39 24 125 Left 0
SYMATTR InstName V1
SYMATTR Value 15
SYMBOL cap 16 320 R90
WINDOW 0 0 32 VBottom 0
WINDOW 3 32 32 VTop 0
SYMATTR InstName C1
SYMATTR Value 220p
SYMBOL cap 432 320 R90
WINDOW 0 0 32 VBottom 0
WINDOW 3 32 32 VTop 0
SYMATTR InstName C2
SYMATTR Value 4.7µ
SYMBOL res 480 80 R90
WINDOW 0 0 56 VBottom 0
WINDOW 3 32 56 VTop 0
SYMATTR InstName R3
SYMATTR Value 80.6K
SYMBOL res 464 240 R90
WINDOW 0 0 56 VBottom 0
WINDOW 3 32 56 VTop 0
SYMATTR InstName R4
SYMATTR Value 6.04K
SYMBOL cap 912 32 R0
SYMATTR InstName C3
SYMATTR Value 47µ
SYMATTR SpiceLine Rser=2m
SYMBOL schottky 816 0 R270
WINDOW 0 32 32 VTop 0
WINDOW 3 0 32 VBottom 0
SYMATTR InstName D1
SYMATTR Value MBRS340
SYMATTR Description Diode
SYMATTR Type diode
SYMBOL res -48 320 R90
WINDOW 0 0 56 VBottom 0
WINDOW 3 32 56 VTop 0
SYMATTR InstName R5
SYMATTR Value 51.1K
SYMBOL cap 112 480 M180
WINDOW 0 24 53 Left 0
WINDOW 3 24 8 Left 0
SYMATTR InstName C4
SYMATTR Value .01µ
SYMBOL res -16 -96 R0
SYMATTR InstName R6
SYMATTR Value 274K
SYMATTR SpiceLine tol=1 pwr=0.1
SYMBOL res -16 80 R90
WINDOW 0 0 56 VBottom 0
WINDOW 3 32 56 VTop 0
SYMATTR InstName R7
SYMATTR Value 51.1K
SYMBOL res 384 -160 R0
SYMATTR InstName R8
SYMATTR Value 2K
SYMBOL cap 288 -144 R0
SYMATTR InstName C5
SYMATTR Value .22µ
SYMATTR SpiceLine Rser=30m
SYMBOL schottky 384 32 M180
WINDOW 0 32 66 Left 0
WINDOW 3 24 0 Left 0
SYMATTR InstName D2
SYMATTR Value PMEG6010AED
SYMATTR Description Diode
SYMATTR Type diode
SYMBOL cap -128 -128 R0
SYMATTR InstName C7
SYMATTR Value 4.7µ
SYMATTR SpiceLine Rser=5m
SYMBOL polcap 1024 32 R0
SYMATTR InstName C8
SYMATTR Value 100µ
SYMATTR Description Capacitor
SYMATTR Type cap
SYMATTR SpiceLine V=10 Irms=0 Rser=0.1 Lser=0 mfg="AVX" pn="TPSD107M010R0100" type="Tantalum"
SYMBOL res 1136 0 R0
SYMATTR InstName R10
SYMATTR Value 10
SYMBOL Contrib\\Würth\\750370047 608 -32 R0
SYMATTR InstName T1
TEXT 736 312 Left 0 !.tran 3m startup
TEXT 592 -168 Left 0 ;Würth / MIDCOM
