Version 4
SHEET 1 3268 2464
WIRE 1856 1824 1808 1824
WIRE 1968 1824 1920 1824
WIRE 2016 1824 1968 1824
WIRE 2128 1824 2080 1824
WIRE 2640 1824 2592 1824
WIRE 2752 1824 2704 1824
WIRE 2800 1824 2752 1824
WIRE 2912 1824 2864 1824
WIRE 1968 1856 1968 1824
WIRE 2752 1856 2752 1824
WIRE 1808 1952 1808 1824
WIRE 1936 1952 1808 1952
WIRE 2128 1952 2128 1824
WIRE 2128 1952 2000 1952
WIRE 2592 1952 2592 1824
WIRE 2720 1952 2592 1952
WIRE 2912 1952 2912 1824
WIRE 2912 1952 2784 1952
WIRE 2128 1968 2128 1952
WIRE 2912 1968 2912 1952
WIRE 2128 2048 2128 2032
WIRE 2368 2048 2128 2048
WIRE 2480 2048 2416 2048
WIRE 2912 2048 2912 2032
WIRE 3152 2048 2912 2048
WIRE 3264 2048 3200 2048
WIRE 2128 2064 2128 2048
WIRE 2368 2064 2368 2048
WIRE 2416 2064 2416 2048
WIRE 2912 2064 2912 2048
WIRE 3152 2064 3152 2048
WIRE 3200 2064 3200 2048
WIRE 1808 2128 1808 1952
WIRE 1968 2128 1808 2128
WIRE 2000 2128 1968 2128
WIRE 2080 2128 2064 2128
WIRE 2592 2128 2592 1952
WIRE 2752 2128 2592 2128
WIRE 2784 2128 2752 2128
WIRE 2864 2128 2848 2128
WIRE 1808 2160 1808 2128
WIRE 1968 2160 1968 2128
WIRE 2368 2160 2368 2144
WIRE 2368 2160 2304 2160
WIRE 2416 2160 2416 2144
WIRE 2592 2160 2592 2128
WIRE 2752 2160 2752 2128
WIRE 3152 2160 3152 2144
WIRE 3152 2160 3088 2160
WIRE 3200 2160 3200 2144
WIRE 2128 2176 2128 2160
WIRE 2304 2176 2304 2160
WIRE 2912 2176 2912 2160
WIRE 3088 2176 3088 2160
WIRE 1808 2272 1808 2240
WIRE 1968 2272 1968 2224
WIRE 2128 2272 2128 2256
WIRE 2304 2272 2304 2256
WIRE 2592 2272 2592 2240
WIRE 2752 2272 2752 2224
WIRE 2912 2272 2912 2256
WIRE 3088 2272 3088 2256
FLAG 1968 1856 0
FLAG 1808 2272 0
FLAG 2128 2272 0
FLAG 2304 2272 0
FLAG 1968 2272 0
FLAG 2416 2160 0
FLAG 2752 1856 0
FLAG 2592 2272 0
FLAG 2912 2272 0
FLAG 3088 2272 0
FLAG 2752 2272 0
FLAG 3200 2160 0
SYMBOL MISC\\XTAL 2000 1936 R90
WINDOW 0 0 32 VBottom 0
WINDOW 3 32 32 VTop 0
SYMATTR InstName Y1
SYMATTR Value 0.25pF
SYMATTR SpiceLine Rser=0.1 Lser=0.001 Cpar=5e-011
SYMBOL NJF 2080 2064 R0
SYMATTR InstName J1
SYMATTR Value 2N5484
SYMBOL cap 2112 1968 R0
SYMATTR InstName C3
SYMATTR Value 200p
SYMBOL cap 2080 1808 R90
WINDOW 0 0 32 VBottom 0
WINDOW 3 32 32 VTop 0
SYMATTR InstName C2
SYMATTR Value 100p
SYMBOL cap 1920 1808 R90
WINDOW 0 0 32 VBottom 0
WINDOW 3 32 32 VTop 0
SYMATTR InstName C1
SYMATTR Value 25p
SYMBOL RES 1792 2144 R0
SYMATTR InstName R1
SYMATTR Value 100K
SYMBOL VOLTAGE 2304 2160 R0
SYMATTR InstName V1
SYMATTR Value 10.
SYMBOL diode 1952 2224 M180
WINDOW 0 24 72 Left 0
WINDOW 3 24 0 Left 0
SYMATTR InstName D1
SYMATTR Value 1N4148
SYMBOL ind2 2432 2048 M0
WINDOW 0 -2 37 Right 0
WINDOW 3 -4 72 Right 0
SYMATTR InstName L2
SYMATTR Value 6
SYMBOL ind2 2352 2048 R0
WINDOW 0 -4 35 Right 0
WINDOW 3 -4 73 Right 0
SYMATTR InstName L1
SYMATTR Value 12
SYMBOL RES 2112 2160 R0
SYMATTR InstName R2
SYMATTR Value 100
SYMBOL MISC\\XTAL 2784 1936 R90
WINDOW 0 0 32 VBottom 0
WINDOW 3 32 32 VTop 0
SYMATTR InstName Y2
SYMATTR Value 0.25pF
SYMATTR SpiceLine Rser=0.1 Lser=0.001 Cpar=5e-011
SYMBOL NJF 2864 2064 R0
SYMATTR InstName J2
SYMATTR Value 2N5484
SYMBOL cap 2896 1968 R0
SYMATTR InstName C4
SYMATTR Value 200p
SYMBOL cap 2864 1808 R90
WINDOW 0 0 32 VBottom 0
WINDOW 3 32 32 VTop 0
SYMATTR InstName C5
SYMATTR Value 100p
SYMBOL cap 2704 1808 R90
WINDOW 0 0 32 VBottom 0
WINDOW 3 32 32 VTop 0
SYMATTR InstName C6
SYMATTR Value 25p
SYMBOL RES 2576 2144 R0
SYMATTR InstName R3
SYMATTR Value 100K
SYMBOL VOLTAGE 3088 2160 R0
SYMATTR InstName V2
SYMATTR Value 10.
SYMBOL diode 2736 2224 M180
WINDOW 0 24 72 Left 0
WINDOW 3 24 0 Left 0
SYMATTR InstName D2
SYMATTR Value 1N4148
SYMBOL ind2 3216 2048 M0
WINDOW 0 -2 37 Right 0
WINDOW 3 -4 72 Right 0
SYMATTR InstName L3
SYMATTR Value 6
SYMBOL ind2 3136 2048 R0
WINDOW 0 -4 35 Right 0
WINDOW 3 -4 73 Right 0
SYMATTR InstName L4
SYMATTR Value 12
SYMBOL RES 2896 2160 R0
SYMATTR InstName R4
SYMATTR Value 100
SYMBOL FerriteBead 2032 2128 R90
WINDOW 0 -16 0 VBottom 0
SYMATTR InstName L5
SYMATTR Value 250n
SYMATTR SpiceLine Ipk=16 Rser=0.0021 Rpar=275 Cpar=2.6p mfg="Manufacturer: Wurth Elektronik  eiSos" pn=" Part Number: 744 312 025"
SYMBOL ferritebead2 2816 2128 R90
WINDOW 0 -9 0 VBottom 0
SYMATTR InstName L6
TEXT 1824 2368 Left 0 !.tran 1.5m startup
TEXT 2392 2032 Center 0 !K1 L1 L2 1.
TEXT 1800 2448 Left 0 ;This example schematic is supplied for informational/educational purposes only.
TEXT 1824 2408 Left 0 !.options method=trap
TEXT 3176 2032 Center 0 !K1 L1 L2 1.
