Version 4
SHEET 1 880 680
WIRE -208 -32 -480 -32
WIRE 48 0 -32 0
WIRE -480 16 -480 -32
WIRE -352 16 -384 16
WIRE -208 16 -208 -32
WIRE -208 16 -224 16
WIRE -32 16 -32 0
WIRE 48 16 48 0
WIRE 96 16 48 16
WIRE 240 16 224 16
WIRE -384 112 -384 16
WIRE -352 112 -384 112
WIRE -208 112 -208 16
WIRE -208 112 -224 112
WIRE 96 112 48 112
WIRE 240 112 240 16
WIRE 240 112 224 112
WIRE -480 128 -480 96
WIRE -384 128 -384 112
WIRE -384 128 -480 128
WIRE -32 128 -32 96
WIRE 48 128 48 112
WIRE 48 128 -32 128
WIRE -480 144 -480 128
WIRE -32 144 -32 128
FLAG -480 144 0
FLAG -480 -32 Common
FLAG -32 144 0
FLAG -32 0 Differential
SYMBOL current -480 96 M180
WINDOW 0 23 78 Left 0
WINDOW 123 20 -3 Left 0
WINDOW 39 0 0 Left 0
SYMATTR InstName I1
SYMATTR Value2 AC 1
SYMATTR Value ""
SYMBOL current -32 96 M180
WINDOW 0 17 83 Left 0
WINDOW 123 15 -4 Left 0
WINDOW 39 0 0 Left 0
SYMATTR InstName I2
SYMATTR Value2 AC 1
SYMATTR Value ""
SYMBOL SLM -288 64 R0
WINDOW 0 0 -80 Center 0
WINDOW 38 1 81 Center 0
SYMATTR InstName U1
SYMBOL SLM 160 64 R0
WINDOW 0 0 -80 Center 0
WINDOW 38 1 81 Center 0
SYMATTR InstName U2
SYMATTR SpiceModel 744242220
TEXT -224 232 Left 0 !.ac dec 1000 100K 1.8G
TEXT -376 176 Left 0 ;Common Mode
TEXT 64 168 Left 0 ;Differential Mode
TEXT -240 -80 Left 0 ;744242101
