Version 4
SHEET 1 880 680
WIRE -112 -64 -400 -64
WIRE 80 -48 -16 -48
WIRE -400 -16 -400 -64
WIRE -256 -16 -272 -16
WIRE -112 -16 -112 -64
WIRE -112 -16 -128 -16
WIRE -16 -16 -16 -48
WIRE 80 -16 80 -48
WIRE 128 -16 80 -16
WIRE 272 -16 256 -16
WIRE -272 80 -272 -16
WIRE -256 80 -272 80
WIRE -112 80 -112 -16
WIRE -112 80 -128 80
WIRE 128 80 80 80
WIRE 272 80 272 -16
WIRE 272 80 256 80
WIRE -400 112 -400 64
WIRE -272 112 -272 80
WIRE -272 112 -400 112
WIRE -16 112 -16 64
WIRE 80 112 80 80
WIRE 80 112 -16 112
WIRE -400 128 -400 112
WIRE -16 128 -16 112
FLAG -400 128 0
FLAG -400 -64 Common
FLAG -16 128 0
FLAG -16 -48 Differential
SYMBOL current -400 64 M180
WINDOW 0 24 88 Left 0
WINDOW 3 24 0 Left 0
WINDOW 123 24 -28 Left 0
WINDOW 39 0 0 Left 0
SYMATTR InstName I1
SYMATTR Value ""
SYMATTR Value2 AC 1
SYMBOL current -16 64 M180
WINDOW 0 11 88 Left 0
WINDOW 3 24 0 Left 0
WINDOW 123 16 -6 Left 0
WINDOW 39 0 0 Left 0
SYMATTR InstName I2
SYMATTR Value ""
SYMATTR Value2 AC 1
SYMBOL SLx -192 32 R0
SYMATTR InstName U3
SYMBOL SLx 192 32 R0
SYMATTR InstName U4
TEXT -176 200 Left 0 !.ac dec 1000 100K 1.8G
TEXT -312 152 Left 0 ;Common Mode
TEXT 80 152 Left 0 ;Differential Mode
