Version 4
SHEET 1 1236 680
WIRE 144 128 64 128
WIRE 288 128 208 128
WIRE 784 128 656 128
WIRE 656 160 656 128
WIRE 64 208 64 128
WIRE 64 208 0 208
WIRE 112 208 64 208
WIRE 288 208 288 128
WIRE 288 208 240 208
WIRE 352 208 288 208
WIRE 784 224 784 128
WIRE -128 240 -128 160
WIRE 0 272 0 208
WIRE 176 272 176 208
WIRE 352 272 352 208
WIRE 656 272 656 224
WIRE 736 272 656 272
WIRE -432 288 -608 288
WIRE -384 288 -432 288
WIRE -224 288 -320 288
WIRE -176 288 -224 288
WIRE -432 336 -432 288
WIRE -224 336 -224 288
WIRE 656 352 656 272
WIRE -608 400 -608 288
WIRE -160 400 -160 336
WIRE 0 400 0 336
WIRE 0 400 -160 400
WIRE 176 400 176 336
WIRE 400 400 176 400
WIRE 464 400 448 400
WIRE 608 400 464 400
WIRE 752 400 752 320
WIRE 816 400 752 400
WIRE -608 416 -608 400
WIRE -160 448 -160 400
WIRE 0 448 0 400
WIRE 176 464 176 400
WIRE 352 480 352 336
WIRE 720 480 352 480
WIRE 816 480 816 400
WIRE 816 480 784 480
WIRE 464 496 464 400
WIRE 352 512 352 480
WIRE -224 528 -224 400
WIRE -160 528 -160 512
WIRE -160 528 -224 528
WIRE -112 528 -160 528
WIRE 720 544 720 480
WIRE 848 544 720 544
WIRE 944 544 912 544
WIRE 960 544 944 544
WIRE -160 592 -160 528
WIRE -112 592 -112 528
WIRE 624 592 624 448
WIRE 816 592 816 480
WIRE 960 592 960 544
WIRE 0 608 0 512
WIRE 112 608 0 608
WIRE 176 608 176 528
WIRE 352 608 352 576
WIRE 352 608 240 608
WIRE 464 656 464 560
WIRE 624 656 464 656
WIRE 816 656 624 656
WIRE 960 656 816 656
FLAG 656 48 0
FLAG 816 656 0
FLAG 944 544 out
FLAG -128 80 0
FLAG -160 656 0
FLAG -112 656 0
FLAG -608 496 0
FLAG -608 400 in
FLAG -432 400 0
SYMBOL r 176 208 R180
SYMATTR InstName R1
SYMATTR Value {R5}
SYMBOL r 240 208 R180
SYMATTR InstName R2
SYMATTR Value {0.001+100k-R5}
SYMBOL r 176 608 R180
SYMATTR InstName R3
SYMATTR Value {0.001+100k-R9}
SYMBOL r 240 608 R180
SYMATTR InstName R4
SYMATTR Value {R9}
SYMBOL r 0 272 R90
SYMATTR InstName R5
SYMATTR Value 10k
SYMBOL r 352 272 R90
SYMATTR InstName R6
SYMATTR Value 10k
SYMBOL r 176 272 R90
SYMATTR InstName R9
SYMATTR Value 10k
SYMBOL cap 208 112 R90
WINDOW 0 0 32 VBottom 2
WINDOW 3 32 32 VTop 2
SYMATTR InstName C1
SYMATTR Value 22n
SYMBOL cap 160 464 R0
SYMATTR InstName C2
SYMATTR Value 1n
SYMBOL misc/VacuumTubes/NormanKoren/12AX7 656 400 R0
SYMATTR InstName U1
SYMBOL r 624 592 R90
SYMATTR InstName R10
SYMATTR Value 2.2k
SYMBOL r 656 160 R90
SYMATTR InstName R11
SYMATTR Value 220k
SYMBOL r 816 592 R90
SYMATTR InstName R12
SYMATTR Value 33k
SYMBOL cap 784 464 R90
WINDOW 0 0 32 VBottom 2
WINDOW 3 32 32 VTop 2
SYMATTR InstName C3
SYMATTR Value 0.22µ
SYMBOL r 960 592 R90
SYMATTR InstName R13
SYMATTR Value 470k
SYMBOL cap 912 528 R90
WINDOW 0 0 32 VBottom 2
WINDOW 3 32 32 VTop 2
SYMATTR InstName C4
SYMATTR Value 100n
SYMBOL voltage 656 144 R180
WINDOW 0 24 96 Left 2
WINDOW 3 24 16 Left 2
SYMATTR InstName V2
SYMATTR Value 250
SYMBOL r -224 336 R90
SYMATTR InstName R14
SYMATTR Value 470k
SYMBOL r -160 448 R90
SYMATTR InstName R15
SYMATTR Value 3.9k
SYMBOL r -160 592 R90
SYMATTR InstName R16
SYMATTR Value 33k
SYMBOL voltage -128 176 R180
WINDOW 0 24 96 Left 2
WINDOW 3 24 16 Left 2
SYMATTR InstName V3
SYMATTR Value 250
SYMBOL cap -128 592 R0
SYMATTR InstName C5
SYMATTR Value 10µ
SYMBOL cap 464 384 R90
WINDOW 0 0 32 VBottom 2
WINDOW 3 32 32 VTop 2
SYMATTR InstName C6
SYMATTR Value 100n
SYMBOL r 464 496 R90
SYMATTR InstName R17
SYMATTR Value 1Meg
SYMBOL misc/VacuumTubes/NormanKoren/12AU7 -128 288 R0
SYMATTR InstName U2
SYMBOL misc/VacuumTubes/NormanKoren/12AU7 784 272 R0
SYMATTR InstName U3
SYMBOL cap 336 512 R0
SYMATTR InstName C7
SYMATTR Value 680p
SYMBOL cap -16 448 R0
SYMATTR InstName C8
SYMATTR Value 680p
SYMBOL cap -320 272 R90
WINDOW 0 0 32 VBottom 2
WINDOW 3 32 32 VTop 2
SYMATTR InstName C9
SYMATTR Value 100n
SYMBOL voltage -608 400 R0
WINDOW 3 24 38 Left 2
SYMATTR Value SINE(0 50m 1k)
SYMATTR InstName V4
SYMATTR Value2 AC 1
SYMBOL r -432 336 R90
SYMATTR InstName R7
SYMATTR Value 1Meg
TEXT 920 112 Left 2 !.ac dec 100 10 100k
TEXT 920 232 Left 2 !.four 1k 9 v(out)
TEXT 920 88 Left 2 ;.tran 0 20.1m 0.9m 100u
TEXT 920 136 Left 2 !.step param POT 1 100k 10k
TEXT 920 160 Left 2 !.param R5=POT
TEXT 920 184 Left 2 !.param R9=POT
TEXT 920 208 Left 2 !.op
