Version 4
SHEET 1 1912 1696
WIRE 912 240 784 240
WIRE 784 272 784 240
WIRE 112 320 112 240
WIRE 912 336 912 240
WIRE -128 368 -304 368
WIRE -80 368 -128 368
WIRE 16 368 -16 368
WIRE 64 368 16 368
WIRE 352 368 304 368
WIRE 528 368 480 368
WIRE 784 384 784 336
WIRE 864 384 784 384
WIRE -128 416 -128 368
WIRE 16 416 16 368
WIRE 416 416 416 368
WIRE 784 464 784 384
WIRE -304 480 -304 368
WIRE 80 480 80 416
WIRE 240 480 240 368
WIRE 240 480 80 480
WIRE -304 496 -304 480
WIRE 416 512 416 480
WIRE 640 512 416 512
WIRE 736 512 704 512
WIRE 880 512 880 432
WIRE 944 512 880 512
WIRE 80 528 80 480
WIRE 240 528 240 480
WIRE 416 544 416 512
WIRE 592 592 592 368
WIRE 848 592 592 592
WIRE 944 592 944 512
WIRE 944 592 912 592
WIRE 16 608 16 480
WIRE 80 608 80 592
WIRE 80 608 16 608
WIRE 704 608 704 512
WIRE 848 656 848 592
WIRE 976 656 848 656
WIRE 1072 656 1040 656
WIRE 1088 656 1072 656
WIRE 80 672 80 608
WIRE 752 672 752 560
WIRE 816 672 752 672
WIRE 240 688 240 592
WIRE 352 688 240 688
WIRE 416 688 416 608
WIRE 592 688 592 656
WIRE 592 688 480 688
WIRE 752 704 752 672
WIRE 816 704 816 672
WIRE 944 704 944 592
WIRE 1088 704 1088 656
WIRE 352 752 352 688
WIRE 384 752 352 752
WIRE 480 752 480 688
WIRE 480 752 448 752
WIRE -192 1088 -272 1088
WIRE -48 1088 -128 1088
WIRE 720 1152 640 1152
WIRE 864 1152 784 1152
WIRE -272 1168 -272 1088
WIRE -272 1168 -336 1168
WIRE -224 1168 -272 1168
WIRE -48 1168 -48 1088
WIRE -48 1168 -96 1168
WIRE 16 1168 -48 1168
WIRE -336 1232 -336 1168
WIRE -160 1232 -160 1168
WIRE 16 1232 16 1168
WIRE 640 1232 640 1152
WIRE 640 1232 576 1232
WIRE 688 1232 640 1232
WIRE 864 1232 864 1152
WIRE 864 1232 816 1232
WIRE 928 1232 864 1232
WIRE 576 1296 576 1232
WIRE 752 1296 752 1232
WIRE 928 1296 928 1232
WIRE -336 1360 -336 1296
WIRE -336 1360 -624 1360
WIRE -160 1360 -160 1296
WIRE 64 1360 -160 1360
WIRE 256 1376 128 1376
WIRE -624 1408 -624 1360
WIRE -336 1408 -336 1360
WIRE -160 1424 -160 1360
WIRE 16 1440 16 1296
WIRE 256 1440 256 1376
WIRE 256 1440 16 1440
WIRE 16 1472 16 1440
WIRE 576 1472 576 1360
WIRE 752 1488 752 1360
WIRE 928 1536 928 1360
WIRE -624 1552 -624 1488
WIRE -336 1568 -336 1472
WIRE -224 1568 -336 1568
WIRE -160 1568 -160 1488
WIRE 16 1568 16 1536
WIRE 16 1568 -96 1568
WIRE 576 1632 576 1536
WIRE 688 1632 576 1632
WIRE 752 1632 752 1552
WIRE 928 1632 928 1600
WIRE 928 1632 816 1632
FLAG 112 160 0
FLAG 784 160 0
FLAG 80 736 0
FLAG 704 672 0
FLAG 752 768 0
FLAG 816 768 0
FLAG 944 768 0
FLAG 1088 768 0
FLAG 1072 656 out
FLAG -304 576 0
FLAG -304 480 in
FLAG -128 480 0
FLAG 64 1392 0
FLAG 96 1344 B+
FLAG 96 1408 B-
FLAG -624 1552 0
SYMBOL cap -16 352 R90
WINDOW 0 0 32 VBottom 2
WINDOW 3 32 32 VTop 2
SYMATTR InstName C1
SYMATTR Value 100n
SYMBOL r 16 416 R90
SYMATTR InstName R1
SYMATTR Value 470k
SYMBOL r 80 528 R90
SYMATTR InstName R2
SYMATTR Value 3.9k
SYMBOL r 80 672 R90
SYMATTR InstName R3
SYMATTR Value 33k
SYMBOL cap 304 352 R90
WINDOW 0 0 32 VBottom 2
WINDOW 3 32 32 VTop 2
SYMATTR InstName C2
SYMATTR Value 680p
SYMBOL cap 592 352 R90
WINDOW 0 0 32 VBottom 2
WINDOW 3 32 32 VTop 2
SYMATTR InstName C3
SYMATTR Value 680p
SYMBOL voltage 112 256 R180
WINDOW 0 24 96 Left 2
WINDOW 3 24 16 Left 2
SYMATTR InstName V1
SYMATTR Value 250
SYMBOL r 416 416 R90
SYMATTR InstName R6
SYMATTR Value 150k
SYMBOL r 416 544 R90
SYMATTR InstName R7
SYMATTR Value 300k
SYMBOL cap 448 736 R90
WINDOW 0 0 32 VBottom 2
WINDOW 3 32 32 VTop 2
SYMATTR InstName C4
SYMATTR Value 0.01µ
SYMBOL r 240 528 R90
SYMATTR InstName R10
SYMATTR Value 22k
SYMBOL r 592 592 R90
SYMATTR InstName R11
SYMATTR Value 22k
SYMBOL misc/VacuumTubes/NormanKoren/12AX7 784 512 R0
SYMATTR InstName U2
SYMBOL cap 704 496 R90
WINDOW 0 0 32 VBottom 2
WINDOW 3 32 32 VTop 2
SYMATTR InstName C5
SYMATTR Value 100n
SYMBOL r 704 608 R90
SYMATTR InstName R12
SYMATTR Value 1Meg
SYMBOL r 752 704 R90
SYMATTR InstName R13
SYMATTR Value 3.9k
SYMBOL cap 832 768 R180
WINDOW 0 24 56 Left 2
WINDOW 3 24 8 Left 2
SYMATTR InstName C6
SYMATTR Value 100µ
SYMBOL r 784 272 R90
SYMATTR InstName R14
SYMATTR Value 750k
SYMBOL r 944 704 R90
SYMATTR InstName R15
SYMATTR Value 33k
SYMBOL cap 912 576 R90
WINDOW 0 0 32 VBottom 2
WINDOW 3 32 32 VTop 2
SYMATTR InstName C7
SYMATTR Value 0.22µ
SYMBOL r 1088 704 R90
SYMATTR InstName R16
SYMATTR Value 470k
SYMBOL cap 1040 640 R90
WINDOW 0 0 32 VBottom 2
WINDOW 3 32 32 VTop 2
SYMATTR InstName C8
SYMATTR Value 100n
SYMBOL voltage 784 256 R180
WINDOW 0 24 96 Left 2
WINDOW 3 24 16 Left 2
SYMATTR InstName V2
SYMATTR Value 300
SYMBOL voltage -304 480 R0
WINDOW 3 24 38 Left 2
SYMATTR Value SINE(0 50m 1k)
SYMATTR InstName V3
SYMATTR Value2 AC 1
SYMBOL r -128 416 R90
SYMATTR InstName R19
SYMATTR Value 1Meg
SYMBOL r 416 368 R180
SYMATTR InstName R20
SYMATTR Value {R5}
SYMBOL r 480 368 R180
SYMATTR InstName R21
SYMATTR Value {0.001+100k-R5}
SYMBOL r 416 688 R180
SYMATTR InstName R22
SYMATTR Value {0.001+100k-R9}
SYMBOL r 480 688 R180
SYMATTR InstName R23
SYMATTR Value {R9}
SYMBOL misc/VacuumTubes/NormanKoren/12AU7 112 368 R0
SYMATTR InstName U1
SYMBOL misc/VacuumTubes/NormanKoren/12AU7 912 384 R0
SYMATTR InstName U3
SYMBOL r 752 1232 R180
WINDOW 0 61 -19 Right 2
WINDOW 3 65 -39 Right 2
SYMATTR InstName R4
SYMATTR Value {R5}
SYMBOL r 816 1232 R180
WINDOW 0 63 -21 Right 2
WINDOW 3 64 -40 Right 2
SYMATTR InstName R5
SYMATTR Value {0.001+100k-R5}
SYMBOL r 752 1632 R180
WINDOW 0 24 -26 Right 2
WINDOW 3 187 -47 Right 2
SYMATTR InstName R8
SYMATTR Value {0.001+100k-R9}
SYMBOL r 816 1632 R180
WINDOW 0 14 -28 Right 2
WINDOW 3 16 -48 Right 2
SYMATTR InstName R9
SYMATTR Value {R9}
SYMBOL r 576 1472 R90
SYMATTR InstName R17
SYMATTR Value 10k
SYMBOL r 928 1536 R90
SYMATTR InstName R18
SYMATTR Value 10k
SYMBOL r 576 1296 R90
SYMATTR InstName R24
SYMATTR Value 10k
SYMBOL r 928 1296 R90
SYMATTR InstName R25
SYMATTR Value 10k
SYMBOL r 752 1296 R90
SYMATTR InstName R26
SYMATTR Value 56k
SYMBOL cap 784 1136 R90
WINDOW 0 0 32 VBottom 2
WINDOW 3 32 32 VTop 2
SYMATTR InstName C9
SYMATTR Value 22n
SYMBOL cap 736 1488 R0
SYMATTR InstName C10
SYMATTR Value 1n
SYMBOL r -160 1168 R180
WINDOW 0 61 -19 Right 2
WINDOW 3 65 -39 Right 2
SYMATTR InstName R27
SYMATTR Value {R5}
SYMBOL r -96 1168 R180
WINDOW 0 63 -21 Right 2
WINDOW 3 64 -40 Right 2
SYMATTR InstName R28
SYMATTR Value {0.001+100k-R5}
SYMBOL r -160 1568 R180
WINDOW 0 24 -26 Right 2
WINDOW 3 187 -47 Right 2
SYMATTR InstName R29
SYMATTR Value {0.001+100k-R9}
SYMBOL r -96 1568 R180
WINDOW 0 14 -28 Right 2
WINDOW 3 16 -48 Right 2
SYMATTR InstName R30
SYMATTR Value {R9}
SYMBOL r -336 1408 R90
SYMATTR InstName R31
SYMATTR Value 10k
SYMBOL r 16 1472 R90
SYMATTR InstName R32
SYMATTR Value 10k
SYMBOL r -336 1232 R90
SYMATTR InstName R33
SYMATTR Value 10k
SYMBOL r 16 1232 R90
SYMATTR InstName R34
SYMATTR Value 10k
SYMBOL r -160 1232 R90
SYMATTR InstName R35
SYMATTR Value 56k
SYMBOL cap -128 1072 R90
WINDOW 0 0 32 VBottom 2
WINDOW 3 32 32 VTop 2
SYMATTR InstName C11
SYMATTR Value 22n
SYMBOL cap -176 1424 R0
SYMATTR InstName C12
SYMATTR Value 1n
SYMBOL opamps/LT1022 96 1312 R0
SYMATTR InstName U4
SYMBOL voltage -624 1392 R0
WINDOW 3 24 38 Left 2
SYMATTR Value SINE(0 50m 1k)
SYMATTR InstName V4
SYMATTR Value2 AC 1
TEXT 296 144 Left 2 !.ac dec 100 10 100k
TEXT 296 264 Left 2 !.four 1k 9 v(out)
TEXT 296 120 Left 2 ;.tran 0 20.1m 0.9m 100u
TEXT 296 168 Left 2 !.step param POT 1 100k 5k
TEXT 296 192 Left 2 !.param R5=POT
TEXT 296 216 Left 2 !.param R9=POT
TEXT 296 240 Left 2 !.op
TEXT 208 456 Left 2 ;In
TEXT 296 96 Left 2 !.four 1k 9 v(out)
TEXT 968 1400 Left 2 !.step param POT 1 100k 10k
TEXT 968 1424 Left 2 !.param R5=POT
TEXT 968 1448 Left 2 !.param R9=POT
TEXT 96 1016 Left 2 !.step param POT 1 100k 10k
TEXT 96 1040 Left 2 !.param R5=POT
TEXT 96 1064 Left 2 !.param R9=POT
