Version 4
SHEET 1 2208 948
WIRE -544 48 -736 48
WIRE -224 48 -544 48
WIRE -144 48 -224 48
WIRE -48 48 -144 48
WIRE 48 48 -48 48
WIRE 304 48 48 48
WIRE 544 48 304 48
WIRE 736 48 544 48
WIRE -544 64 -544 48
WIRE -144 64 -144 48
WIRE -48 64 -48 48
WIRE 304 64 304 48
WIRE 736 64 736 48
WIRE -592 96 -672 96
WIRE -576 96 -592 96
WIRE 416 96 384 96
WIRE 480 96 416 96
WIRE -592 160 -592 96
WIRE -544 160 -544 144
WIRE 304 160 304 144
WIRE 416 160 416 96
WIRE 736 160 736 144
WIRE -144 192 -144 144
WIRE -64 192 -144 192
WIRE -736 208 -736 192
WIRE -656 208 -736 208
WIRE -352 208 -480 208
WIRE -336 208 -352 208
WIRE -160 208 -256 208
WIRE -32 208 -64 192
WIRE 64 208 -32 208
WIRE 208 208 144 208
WIRE 240 208 208 208
WIRE 544 208 544 192
WIRE 544 208 480 208
WIRE -736 224 -736 208
WIRE -128 224 -160 208
WIRE -48 224 -48 144
WIRE -48 224 -128 224
WIRE 544 224 544 208
WIRE -576 272 -576 96
WIRE -544 272 -544 256
WIRE -544 272 -576 272
WIRE -432 272 -544 272
WIRE -352 272 -352 208
WIRE -352 272 -368 272
WIRE -224 272 -224 48
WIRE 48 272 48 48
WIRE 208 272 208 208
WIRE 304 272 304 256
WIRE 304 272 272 272
WIRE 384 272 384 96
WIRE 384 272 304 272
WIRE -736 320 -736 304
WIRE -736 320 -864 320
WIRE -592 320 -592 256
WIRE -592 320 -736 320
WIRE -432 320 -592 320
WIRE -352 320 -432 320
WIRE 240 320 144 320
WIRE 416 320 416 256
WIRE 416 320 240 320
WIRE 544 320 544 304
WIRE 544 320 416 320
WIRE 672 320 544 320
WIRE -736 336 -736 320
WIRE -352 336 -352 320
WIRE 144 336 144 320
WIRE 240 336 240 320
WIRE 544 336 544 320
WIRE -544 352 -544 272
WIRE -432 352 -432 320
WIRE 304 352 304 272
WIRE -592 384 -592 320
WIRE -144 384 -144 192
WIRE -48 384 -48 224
WIRE 416 384 416 320
WIRE -736 432 -736 416
WIRE -656 432 -736 432
WIRE -432 432 -432 416
WIRE -352 432 -352 416
WIRE -352 432 -432 432
WIRE -224 432 -224 352
WIRE -224 432 -352 432
WIRE -208 432 -224 432
WIRE 48 432 48 352
WIRE 48 432 16 432
WIRE 144 432 144 416
WIRE 144 432 48 432
WIRE 240 432 240 400
WIRE 240 432 144 432
WIRE 544 432 544 416
WIRE 544 432 480 432
WIRE -352 448 -352 432
WIRE 144 448 144 432
WIRE -736 464 -736 432
WIRE 544 464 544 432
WIRE -592 496 -592 480
WIRE -544 496 -544 416
WIRE -544 496 -592 496
WIRE -224 496 -224 432
WIRE -144 496 -144 480
WIRE -96 496 -144 496
WIRE -48 496 -48 480
WIRE -48 496 -96 496
WIRE 48 496 48 432
WIRE 304 496 304 416
WIRE 416 496 416 480
WIRE 416 496 304 496
WIRE -544 512 -544 496
WIRE -96 512 -96 496
WIRE 304 512 304 496
WIRE -592 560 -592 496
WIRE -592 560 -672 560
WIRE 144 560 144 528
WIRE 416 560 416 496
WIRE 480 560 416 560
WIRE -624 608 -640 608
WIRE -544 608 -544 592
WIRE -544 608 -560 608
WIRE 224 608 208 608
WIRE 304 608 304 592
WIRE 304 608 288 608
WIRE -544 624 -544 608
WIRE 304 624 304 608
WIRE -736 720 -736 608
WIRE -544 720 -544 704
WIRE -544 720 -736 720
WIRE -224 720 -224 576
WIRE -224 720 -544 720
WIRE -96 720 -96 592
WIRE -96 720 -224 720
WIRE 48 720 48 576
WIRE 48 720 -96 720
WIRE 304 720 304 704
WIRE 304 720 48 720
WIRE 544 720 544 608
WIRE 544 720 304 720
WIRE 736 720 544 720
WIRE 736 736 736 720
WIRE -864 752 -864 320
WIRE -640 752 -640 608
WIRE -640 752 -864 752
WIRE -128 752 -640 752
WIRE 208 752 208 608
WIRE 208 752 16 752
WIRE 672 752 672 320
WIRE 672 752 208 752
WIRE -352 800 -352 528
WIRE -128 816 -128 752
WIRE -96 816 -128 816
WIRE 16 816 16 752
WIRE 16 816 -16 816
WIRE 736 832 736 816
WIRE -352 896 -352 880
FLAG 736 160 0
FLAG 736 48 +V
FLAG 736 832 0
FLAG 736 720 -V
FLAG 144 560 0
FLAG -352 896 0
SYMBOL ndarlington 544 112 R0
WINDOW 0 46 -23 Left 2
WINDOW 3 41 39 Left 2
WINDOW 123 41 67 Left 0
SYMATTR InstName Q11
SYMATTR Value TIP121
SYMATTR Prefix X
SYMBOL pdarlington 544 544 R0
WINDOW 0 40 -40 Left 2
WINDOW 3 36 32 Left 2
WINDOW 123 14 91 Left 0
SYMATTR InstName Q12
SYMATTR Value TIP127
SYMATTR Prefix X
SYMBOL voltage 736 48 R0
SYMATTR InstName V1
SYMATTR Value 25
SYMBOL res 0 800 R90
WINDOW 0 0 56 VBottom 2
WINDOW 3 32 56 VTop 2
SYMATTR InstName Speaker
SYMATTR Value 8
SYMBOL res 528 208 R0
SYMATTR InstName R2
SYMATTR Value .1
SYMBOL res 528 320 R0
SYMATTR InstName R3
SYMATTR Value .1
SYMBOL pnp 240 256 M180
WINDOW 0 48 66 Left 2
WINDOW 3 42 30 Left 2
SYMATTR InstName Q1
SYMATTR Value 2N3906
SYMBOL res 288 48 R0
SYMATTR InstName R4
SYMATTR Value 600
SYMBOL diode 288 352 R0
WINDOW 123 40 31 Left 2
SYMATTR Value 1N4148
SYMATTR Value2 N=3.4
SYMATTR InstName D1
SYMBOL cap 272 256 R90
WINDOW 0 0 32 VBottom 2
WINDOW 3 32 32 VTop 2
SYMATTR InstName C1
SYMATTR Value 200p
SYMBOL res 160 192 R90
WINDOW 0 0 56 VBottom 2
WINDOW 3 32 56 VTop 2
SYMATTR InstName R6
SYMATTR Value 10K
SYMBOL npn -208 384 R0
WINDOW 0 48 29 Left 2
WINDOW 3 45 68 Left 2
SYMATTR InstName Q2
SYMATTR Value 2N3904
SYMBOL npn 16 384 M0
WINDOW 0 27 0 Right 2
WINDOW 3 71 127 Right 2
SYMATTR InstName Q3
SYMATTR Value 2N3904
SYMBOL res -160 48 R0
SYMATTR InstName R7
SYMATTR Value 5K
SYMBOL res -64 48 R0
SYMATTR InstName R8
SYMATTR Value 5K
SYMBOL res -112 496 R0
SYMATTR InstName R9
SYMATTR Value 10K
SYMBOL res 128 320 R0
SYMATTR InstName R10
SYMATTR Value 200K
SYMBOL res 128 432 R0
SYMATTR InstName R11
SYMATTR Value 10K
SYMBOL ndarlington -736 112 M0
WINDOW 0 46 -23 Left 2
WINDOW 3 41 39 Left 2
WINDOW 123 41 67 Left 0
SYMATTR InstName Q9
SYMATTR Value TIP121
SYMATTR Prefix X
SYMBOL pdarlington -736 544 M0
WINDOW 0 40 -40 Left 2
WINDOW 3 40 19 Left 2
WINDOW 123 9 95 Left 0
SYMATTR InstName Q10
SYMATTR Value TIP127
SYMATTR Prefix X
SYMBOL res -752 208 R0
SYMATTR InstName R12
SYMATTR Value .1
SYMBOL res -752 320 R0
SYMATTR InstName R13
SYMATTR Value .1
SYMBOL pnp -480 256 R180
WINDOW 0 48 66 Left 2
WINDOW 3 44 3 Right 2
SYMATTR InstName Q4
SYMATTR Value 2N3906
SYMBOL res -560 48 R0
SYMATTR InstName R14
SYMATTR Value 600
SYMBOL diode -560 352 R0
WINDOW 123 38 33 Left 2
SYMATTR Value 1N4148
SYMATTR Value2 N=3.4
SYMATTR InstName D2
SYMBOL cap -432 256 M90
WINDOW 0 0 32 VBottom 2
WINDOW 3 32 32 VTop 2
SYMATTR InstName C3
SYMATTR Value 200p
SYMBOL res -352 224 R270
WINDOW 0 32 56 VTop 2
WINDOW 3 0 56 VBottom 2
SYMATTR InstName R16
SYMATTR Value 10K
SYMBOL res -368 320 R0
SYMATTR InstName R17
SYMATTR Value 200K
SYMBOL res -368 432 R0
SYMATTR InstName R18
SYMATTR Value 10K
SYMBOL res -240 256 R0
SYMATTR InstName R19
SYMATTR Value 50K
SYMBOL res -240 480 R0
SYMATTR InstName R20
SYMATTR Value 50K
SYMBOL res 32 480 R0
SYMATTR InstName R21
SYMATTR Value 50K
SYMBOL res 32 256 R0
SYMATTR InstName R22
SYMATTR Value 50K
SYMBOL npn 480 160 M0
WINDOW 0 48 -7 Right 2
WINDOW 3 42 109 Right 2
SYMATTR InstName Q5
SYMATTR Value 2N3904
SYMBOL pnp 480 480 R180
WINDOW 0 48 109 Right 2
WINDOW 3 56 -5 Right 2
SYMATTR InstName Q6
SYMATTR Value 2N3906
SYMBOL npn -656 160 R0
WINDOW 0 48 -7 Right 2
WINDOW 3 55 117 Right 2
SYMATTR InstName Q7
SYMATTR Value 2N3904
SYMBOL pnp -656 480 M180
WINDOW 0 48 99 Right 2
WINDOW 3 56 0 Right 2
SYMATTR InstName Q8
SYMATTR Value 2N3906
SYMBOL voltage 736 720 R0
SYMATTR InstName V2
SYMATTR Value -25
SYMBOL res 288 608 R0
SYMATTR InstName R1
SYMATTR Value 1.5K
SYMBOL res -560 608 R0
SYMATTR InstName R23
SYMATTR Value 1.5K
SYMBOL cap -560 592 R90
WINDOW 0 0 32 VBottom 2
WINDOW 3 32 32 VTop 2
SYMATTR InstName C2
SYMATTR Value 220µ
SYMBOL cap 288 592 R90
WINDOW 0 0 32 VBottom 2
WINDOW 3 32 32 VTop 2
SYMATTR InstName C4
SYMATTR Value 220µ
SYMBOL voltage -352 784 R0
SYMATTR InstName V3
SYMATTR Value sine(0 1 1K)
SYMATTR Value2 ac 1
SYMBOL cap -448 352 R0
SYMATTR InstName C5
SYMATTR Value 10p
SYMBOL cap 224 336 R0
SYMATTR InstName C6
SYMATTR Value 10p
SYMBOL res 288 496 R0
SYMATTR InstName R5
SYMATTR Value 1.5K
SYMBOL res -560 496 R0
SYMATTR InstName R15
SYMATTR Value 1.5K
TEXT 512 896 Left 2 !;.ac oct 100 1 100K \n.tran 5m
TEXT 104 784 Left 2 !.four 1K I(Speaker)\n.option plotwinsize=0
TEXT -32 912 Left 2 !.param A=1 ; .step param A .1 1.2 .1
TEXT 464 784 Left 2 !.lib TIP121.LIB\n.lib TIP127.LIB
TEXT -768 848 Left 2 ;sine(0 1 1K)
TEXT 864 248 Left 2 ;Total Harmonic Distortion: 0.044552%
