Version 4
SHEET 1 1340 972
WIRE 1056 -96 912 -96
WIRE 1216 -96 1056 -96
WIRE 1056 -48 1056 -96
WIRE 912 -32 912 -96
WIRE 1056 64 1056 16
WIRE 1104 64 1056 64
WIRE 1216 64 1216 -96
WIRE 1216 64 1168 64
WIRE 1216 96 1216 64
WIRE 1056 144 1056 64
WIRE 1152 144 1056 144
WIRE -688 192 -912 192
WIRE -352 192 -688 192
WIRE -224 192 -352 192
WIRE 0 192 -224 192
WIRE 96 192 0 192
WIRE 240 192 96 192
WIRE 496 192 240 192
WIRE 608 192 496 192
WIRE 720 192 608 192
WIRE 944 192 720 192
WIRE 1056 240 1056 144
WIRE 1216 240 1216 192
WIRE 240 256 240 192
WIRE 496 304 496 192
WIRE 720 336 720 192
WIRE 1056 368 1056 304
WIRE 1104 368 1056 368
WIRE 1216 368 1216 304
WIRE 1216 368 1168 368
WIRE -352 416 -352 192
WIRE -224 416 -224 192
WIRE 1216 416 1216 368
WIRE 1056 464 1056 368
WIRE 1152 464 1056 464
WIRE 240 480 240 320
WIRE 368 480 240 480
WIRE 496 480 496 368
WIRE 496 480 368 480
WIRE 608 480 608 192
WIRE 944 480 944 192
WIRE 0 496 0 192
WIRE 96 496 96 192
WIRE -688 512 -688 192
WIRE -352 512 -352 480
WIRE -352 512 -448 512
WIRE -224 512 -224 480
WIRE -224 512 -352 512
WIRE 368 544 368 480
WIRE 496 544 496 480
WIRE -448 560 -448 512
WIRE -992 576 -1088 576
WIRE -864 576 -992 576
WIRE 1056 576 1056 464
WIRE 1216 576 1216 512
WIRE -224 592 -224 512
WIRE -192 592 -224 592
WIRE 0 592 0 560
WIRE 0 592 -96 592
WIRE 96 592 96 560
WIRE 96 592 0 592
WIRE -992 608 -992 576
WIRE -864 608 -864 576
WIRE -224 640 -224 592
WIRE 240 640 240 480
WIRE -1088 656 -1088 576
WIRE -992 688 -992 672
WIRE -912 688 -912 192
WIRE -912 688 -992 688
WIRE -864 688 -864 672
WIRE -688 688 -688 576
WIRE -688 688 -864 688
WIRE -448 688 -448 624
WIRE -448 688 -688 688
WIRE -304 688 -448 688
WIRE -144 688 -144 656
WIRE -144 688 -208 688
WIRE -64 688 -144 688
WIRE 96 688 96 592
WIRE 96 688 0 688
WIRE 176 688 96 688
WIRE 368 688 368 608
WIRE 368 688 304 688
WIRE 496 688 496 608
WIRE 496 688 368 688
WIRE 608 688 608 544
WIRE 608 688 496 688
WIRE 720 688 720 400
WIRE 720 688 608 688
WIRE 944 688 944 560
WIRE 944 688 720 688
WIRE 1056 688 1056 640
WIRE 1056 688 944 688
WIRE 1216 688 1216 640
WIRE 1216 688 1056 688
WIRE -992 720 -992 688
WIRE -864 720 -864 688
WIRE -1088 816 -1088 736
WIRE -992 816 -992 784
WIRE -992 816 -1088 816
WIRE -864 816 -864 784
WIRE -864 816 -992 816
WIRE 96 816 96 688
WIRE 192 816 96 816
WIRE 368 816 368 688
WIRE 368 816 256 816
WIRE -352 928 -352 512
WIRE 192 928 -352 928
WIRE 496 928 496 688
WIRE 496 928 256 928
FLAG 912 -32 0
FLAG 240 192 0
SYMBOL voltage -1088 640 M0
SYMATTR InstName V1
SYMATTR Value SINE(0 372.24 60)
SYMATTR SpiceLine Rser=150
SYMBOL BJT/MPSA44 1168 144 R0
SYMATTR InstName U1
SYMBOL BJT/MPSA44 1168 464 R0
SYMATTR InstName U2
SYMBOL r 1216 240 M90
SYMATTR InstName R1
SYMATTR Value 120k
SYMBOL r 1056 -48 M90
SYMATTR InstName R2
SYMATTR Value 5k
SYMBOL r 1056 240 M90
SYMATTR InstName R3
SYMATTR Value 255k
SYMBOL r 1056 576 M90
SYMATTR InstName R4
SYMATTR Value 50k
SYMBOL r 1216 576 M90
SYMATTR InstName R5
SYMATTR Value 25k
SYMBOL cap 1168 352 R90
WINDOW 0 0 32 VBottom 2
WINDOW 3 32 32 VTop 2
SYMATTR InstName C1
SYMATTR Value 1µ
SYMBOL cap 1168 48 R90
WINDOW 0 0 32 VBottom 2
WINDOW 3 32 32 VTop 2
SYMATTR InstName C2
SYMATTR Value 1µ
SYMBOL current 944 480 R0
SYMATTR InstName I1
SYMATTR Value 76m
SYMBOL r -448 560 M90
SYMATTR InstName R6
SYMATTR Value 220k
SYMBOL cap -672 512 M0
SYMATTR InstName C3
SYMATTR Value 100µ
SYMATTR SpiceLine Rser=1.9
SYMBOL cap -240 480 M180
WINDOW 0 24 56 Left 2
WINDOW 3 24 8 Left 2
SYMATTR InstName C4
SYMATTR Value 4.7µ
SYMATTR SpiceLine Rser=100u
SYMBOL cap 80 560 M180
WINDOW 0 24 56 Left 2
WINDOW 3 24 8 Left 2
SYMATTR InstName C5
SYMATTR Value 4.7µ
SYMBOL cap 224 320 M180
WINDOW 0 24 56 Left 2
WINDOW 3 24 8 Left 2
SYMATTR InstName C6
SYMATTR Value 100µ
SYMBOL cap 704 400 M180
WINDOW 0 24 56 Left 2
WINDOW 3 24 8 Left 2
SYMATTR InstName C7
SYMATTR Value 4.7µ
SYMBOL zener 192 800 M90
WINDOW 0 -4 32 VBottom 2
WINDOW 3 36 32 VTop 2
SYMATTR InstName D1
SYMATTR Value KDZ33B
SYMATTR Description Diode
SYMATTR Type diode
SYMBOL r 496 608 M270
SYMATTR InstName R7
SYMATTR Value 220
SYMBOL r 496 368 M270
SYMATTR InstName R8
SYMATTR Value 53725
SYMBOL diode 384 608 R180
WINDOW 0 40 44 Left 2
WINDOW 3 39 20 Left 2
SYMATTR InstName D2
SYMATTR Value 1N4148
SYMBOL zener 192 912 M90
WINDOW 0 -4 32 VBottom 2
WINDOW 3 36 32 VTop 2
SYMATTR InstName D3
SYMATTR Value KDZ33B
SYMATTR Description Diode
SYMATTR Type diode
SYMBOL r -64 688 M180
SYMATTR InstName R9
SYMATTR Value 1
SYMBOL cap -368 480 M180
WINDOW 0 24 56 Left 2
WINDOW 3 24 8 Left 2
SYMATTR InstName C8
SYMATTR Value 470n
SYMBOL cap -16 560 M180
WINDOW 0 24 56 Left 2
WINDOW 3 24 8 Left 2
SYMATTR InstName C9
SYMATTR Value 470n
SYMBOL pnp -144 640 M270
SYMATTR InstName Q1
SYMATTR Value BC557B
SYMBOL pmos -304 640 M90
SYMATTR InstName M1
SYMATTR Value IRF9640
SYMBOL Reguladores/LM337T 240 704 R0
SYMATTR InstName U3
SYMBOL diode -976 784 R180
WINDOW 0 24 64 Left 2
WINDOW 3 24 0 Left 2
SYMATTR InstName D4
SYMATTR Value 1n4007
SYMBOL diode -848 672 R180
WINDOW 0 24 64 Left 2
WINDOW 3 24 0 Left 2
SYMATTR InstName D5
SYMATTR Value 1n4007
SYMBOL diode -880 720 R0
SYMATTR InstName D6
SYMATTR Value 1n4007
SYMBOL diode -1008 608 R0
SYMATTR InstName D7
SYMATTR Value 1n4007
SYMBOL cap 592 480 R0
SYMATTR InstName C10
SYMATTR Value 470n
TEXT -240 -96 Left 2 !.model 1N4007 D(IS=7.02767n RS=0.0341512 N=1.80803 \n+ EG=1.05743 XTI=5 BV=1000 IBV=5e-08 CJO=1e-11 \n+ VJ=0.7 M=0.5 FC=0.5 TT=1e-07 mfg=OnSemi type=silicon)
TEXT -240 -120 Left 2 !.tran 0 200 0 100u
TEXT -240 -144 Left 2 ;.dc V2 0 60 0.1
TEXT 728 712 Left 2 ;-310V@76mA
TEXT -648 728 Left 2 ;328V +- 2.5V
TEXT -992 848 Left 2 ;250V@0.16A
