Version 4
SHEET 1 1928 1032
WIRE -304 -48 -304 -80
WIRE -48 -48 -48 -80
WIRE 1024 -16 1024 -80
WIRE 880 32 816 32
WIRE 976 32 944 32
WIRE 1232 32 1152 32
WIRE -304 48 -304 16
WIRE -256 48 -304 48
WIRE 272 48 -192 48
WIRE 416 48 416 16
WIRE 640 48 640 16
WIRE -48 80 -48 16
WIRE -16 80 -48 80
WIRE 256 80 48 80
WIRE 1232 80 1200 80
WIRE 992 96 992 80
WIRE 1104 96 992 96
WIRE -304 112 -304 48
WIRE -48 112 -48 80
WIRE 992 112 992 96
WIRE 416 128 416 112
WIRE 816 128 816 32
WIRE 816 128 416 128
WIRE 1232 128 1232 80
WIRE -480 160 -512 160
WIRE -448 160 -480 160
WIRE -352 160 -384 160
WIRE -96 160 -112 160
WIRE 80 160 0 160
WIRE 640 160 640 112
WIRE 816 160 640 160
WIRE 416 176 416 128
WIRE 640 176 640 160
WIRE -480 208 -480 160
WIRE 80 208 80 160
WIRE 272 224 272 48
WIRE 288 224 272 224
WIRE 368 224 352 224
WIRE 736 224 688 224
WIRE 992 224 992 176
WIRE 992 224 928 224
WIRE 1120 224 1120 144
WIRE 1504 224 1504 208
WIRE 1504 224 1408 224
WIRE -336 240 -336 208
WIRE -176 240 -336 240
WIRE -16 240 -16 208
WIRE -16 240 -176 240
WIRE 272 240 272 224
WIRE 736 256 736 224
WIRE 992 272 992 224
WIRE 1120 304 1120 224
WIRE -480 320 -480 272
WIRE -336 320 -480 320
WIRE 272 320 272 304
WIRE 80 336 80 272
WIRE 224 336 80 336
WIRE 992 352 992 336
WIRE 1104 352 992 352
WIRE -336 368 -336 320
WIRE 992 368 992 352
WIRE 1232 368 1232 320
WIRE 1232 368 1200 368
WIRE 224 384 224 336
WIRE 384 384 384 272
WIRE 672 384 672 272
WIRE 672 384 384 384
WIRE 256 416 256 80
WIRE 736 416 736 320
WIRE 736 416 256 416
WIRE 816 416 816 160
WIRE 880 416 816 416
WIRE 976 416 944 416
WIRE 1232 416 1152 416
WIRE -176 432 -176 240
WIRE 384 448 384 384
WIRE 736 464 736 416
WIRE -480 480 -480 320
WIRE -336 480 -336 432
WIRE -240 480 -336 480
WIRE 80 496 80 336
WIRE 224 496 224 448
WIRE 320 496 224 496
WIRE -336 528 -336 480
WIRE 1024 528 1024 464
WIRE 224 544 224 496
WIRE -176 576 -176 528
WIRE 736 576 736 528
WIRE 384 592 384 544
WIRE -336 624 -336 592
WIRE -240 624 -336 624
WIRE 224 640 224 608
WIRE 320 640 224 640
WIRE -336 688 -336 624
WIRE 224 704 224 640
WIRE -176 720 -176 672
WIRE 384 736 384 688
WIRE -336 768 -336 752
WIRE 224 784 224 768
WIRE -176 816 -176 784
WIRE 384 832 384 800
WIRE -336 864 -336 832
WIRE 224 880 224 848
FLAG 1024 -80 Vpp
IOPIN 1024 -80 BiDir
FLAG 928 224 Vneg
IOPIN 928 224 BiDir
FLAG 1024 528 Vpp
IOPIN 1024 528 BiDir
FLAG 1120 224 0
FLAG 1504 288 0
FLAG 1408 336 0
FLAG 1504 208 out
IOPIN 1504 208 Out
FLAG 1120 928 0
FLAG 1312 848 in
FLAG 960 928 0
FLAG 960 848 Vneg
IOPIN 960 848 BiDir
FLAG 640 16 Vpp
IOPIN 640 16 BiDir
FLAG 416 16 Vpp
IOPIN 416 16 BiDir
FLAG -304 -80 Vpp
IOPIN -304 -80 BiDir
FLAG -48 -80 Vpp
IOPIN -48 -80 BiDir
FLAG 80 496 0
FLAG -480 480 0
FLAG 384 832 Vneg
IOPIN 384 832 BiDir
FLAG 736 576 Vneg
IOPIN 736 576 BiDir
FLAG 224 880 Vneg
IOPIN 224 880 BiDir
FLAG 272 320 Vneg
IOPIN 272 320 BiDir
FLAG 800 928 0
FLAG 800 848 Vsink
IOPIN 800 848 BiDir
FLAG -176 816 Vsink
IOPIN -176 816 BiDir
FLAG -336 864 Vsink
IOPIN -336 864 BiDir
FLAG 1232 224 B+
IOPIN 1232 224 BiDir
FLAG 624 848 B+
IOPIN 624 848 BiDir
FLAG 624 928 0
FLAG 1120 848 Vpp
IOPIN 1120 848 BiDir
FLAG -512 160 in
FLAG 1312 928 0
SYMBOL Tubes/6SN7 1024 32 R0
SYMATTR InstName U1
SYMBOL r 992 112 R90
SYMATTR InstName R1
SYMATTR Value 26.6k
SYMBOL Tubes/6SN7 1024 416 M180
SYMATTR InstName U2
SYMBOL r 992 336 M270
WINDOW 0 40 22 VRight 2
SYMATTR InstName R2
SYMATTR Value 26.6k
SYMBOL r 1504 224 R90
SYMATTR InstName R3
SYMATTR Value 13.9151
SYMBOL Trafos/P2647 1312 224 R0
SYMATTR InstName U3
SYMBOL voltage 1120 832 R0
SYMATTR InstName V1
SYMATTR Value 205
SYMBOL voltage 1312 832 R0
SYMATTR InstName V2
SYMATTR Value SINE(0 549m 1k 4.9 0 0)
SYMATTR Value2 AC 1
SYMBOL voltage 960 832 R0
SYMATTR InstName V3
SYMATTR Value -310
SYMBOL Tubes/6SN7 640 224 M0
SYMATTR InstName U6
SYMBOL Tubes/6SN7 416 224 R0
SYMATTR InstName U7
SYMBOL r 416 48 R90
SYMATTR InstName R4
SYMATTR Value 32250
SYMBOL r 640 48 R90
SYMATTR InstName R5
SYMATTR Value 32250
SYMBOL r 880 416 R0
SYMATTR InstName R6
SYMATTR Value 10k
SYMBOL r 944 32 R180
SYMATTR InstName R7
SYMATTR Value 10k
SYMBOL Tubes/6SN7 -304 160 R0
SYMATTR InstName U8
SYMBOL r -304 16 M270
SYMATTR InstName R8
SYMATTR Value 15k
SYMBOL cap -256 32 M90
WINDOW 0 0 32 VBottom 2
WINDOW 3 32 32 VTop 2
SYMATTR InstName C1
SYMATTR Value .1µ
SYMBOL r 272 240 R90
SYMATTR InstName R9
SYMATTR Value 220k
SYMBOL Tubes/6SN7 -48 160 M0
SYMATTR InstName U9
SYMBOL r -48 16 R270
SYMATTR InstName R10
SYMATTR Value 15k
SYMBOL cap 48 64 R90
WINDOW 0 0 32 VBottom 2
WINDOW 3 32 32 VTop 2
SYMATTR InstName C2
SYMATTR Value .1µ
SYMBOL r 736 464 M90
SYMATTR InstName R11
SYMATTR Value 220k
SYMBOL r -480 208 R90
SYMATTR InstName R12
SYMATTR Value 1Meg
SYMBOL LED 208 784 R0
SYMATTR InstName D1
SYMATTR Value SFH4346
SYMBOL r 224 384 R90
SYMATTR InstName R13
SYMATTR Value 137k
SYMBOL r 224 544 R90
SYMATTR InstName R14
SYMATTR Value 820
SYMBOL r 384 736 R90
SYMATTR InstName R15
SYMATTR Value 33
SYMBOL npn 336 496 R0
SYMATTR InstName Q1
SYMATTR Value BC547C
SYMBOL npn 336 640 R0
SYMATTR InstName Q2
SYMATTR Value BC547C
SYMBOL r 224 704 R90
SYMATTR InstName R16
SYMATTR Value 37.6
SYMBOL LED -352 768 R0
SYMATTR InstName D2
SYMATTR Value SFH4346
SYMBOL r -336 368 R90
SYMATTR InstName R17
SYMATTR Value 4.3k
SYMBOL r -336 528 R90
SYMATTR InstName R18
SYMATTR Value 1k
SYMBOL r -176 720 R90
SYMATTR InstName R19
SYMATTR Value 42.22
SYMBOL npn -224 480 R0
SYMATTR InstName Q3
SYMATTR Value BC547C
SYMBOL npn -224 624 R0
SYMATTR InstName Q4
SYMATTR Value BC547C
SYMBOL r -336 688 R90
SYMATTR InstName R20
SYMATTR Value 38.8
SYMBOL voltage 800 832 R0
SYMATTR InstName V4
SYMATTR Value -10
SYMBOL r -384 160 R180
SYMATTR InstName R21
SYMATTR Value 10k
SYMBOL r 80 272 R270
SYMATTR InstName R22
SYMATTR Value 10k
SYMBOL r 736 256 R90
SYMATTR InstName R23
SYMATTR Value 10k
SYMBOL r 288 224 R0
SYMATTR InstName R24
SYMATTR Value 10k
SYMBOL voltage 624 832 R0
SYMATTR InstName V5
SYMATTR Value 500
SYMBOL NormanKoren/EL34 1152 80 R0
SYMATTR InstName U4
SYMBOL NormanKoren/EL34 1152 368 M180
SYMATTR InstName U5
TEXT 1128 712 Left 2 !.tran 0 5 4.9 10u
TEXT 1120 624 Left 2 !.OPTIONS numdgt=7\n.OPTIONS plotwinsize=0\n.four 1k 10 V(out)\n.four 1k 10 V(n004)
TEXT 1120 600 Left 2 ;.ac dec 100 10 100meg
TEXT 1480 608 Left 2 ;Refazer tudo para \n- 550V no CT\n- -53 de grade\n- 6k6:13.9151R ou 11480\n- 549mVpk 1kHz input\n- Resultado: 3.3689% THD a 50,52WRMS
TEXT 1496 752 Left 2 !.MODEL SFH4346 D	\n+	IS=	4.37E-14\n+	N=	1.806132146\n+	RS=	2.129475292\n+	IKF=	164.2918925\n+	IBV =	2.00E-07\n+	NBV =	105\n+	IBVL =	1.00E-06\n+	NBVL =	20\n+	BV =	28\n+	CJO =	1.67E-11\n+	TT =	8.00E-09\n+	EG =	1.3
TEXT 904 744 Left 2 ;Total Harmonic Distortion: 0.762873%(0.767280%)
TEXT 920 88 Left 2 ;-45V
TEXT 920 352 Left 2 ;-45V
TEXT 488 368 Left 2 ;-298V
TEXT -200 224 Left 2 ;2.7V
TEXT 560 960 Left 2 ;88mA med
TEXT 728 960 Left 2 ;13.7mA med
TEXT 904 960 Left 2 ;38mA med
TEXT 1064 960 Left 2 ;48mA med
TEXT 48 176 VRight 2 ;Aqui so vai grid stopper, nao vai leak, SEM 1MEGA!!!!
TEXT -392 -48 Left 2 ;trim com tapper em vpp. extremos em R8 e R9
TEXT -656 688 Left 2 ;alteracao v(R19) com adicao de diodo
TEXT 264 712 Left 2 ;idem
TEXT 1088 104 VRight 2 ;resistor catodo e grade
TEXT 384 400 Left 2 ;trimpot balanco de corrente
TEXT 1120 496 Left 2 !.meas tran irms rms i(r3)\n.meas tran vrms rms v(out)\n.meas tran prms param irms*vrms
