Version 4
SHEET 1 2324 1344
WIRE -16 240 -16 176
WIRE -16 240 -80 240
WIRE 48 240 -16 240
WIRE 1696 240 1696 176
WIRE 1696 240 1600 240
WIRE 1792 240 1696 240
WIRE -80 288 -80 240
WIRE 48 288 48 240
WIRE 1600 288 1600 240
WIRE 1792 288 1792 240
WIRE -80 384 -80 352
WIRE 48 384 48 352
WIRE 1792 384 1792 352
WIRE 1840 384 1792 384
WIRE 2176 384 1904 384
WIRE 2224 384 2176 384
WIRE 1600 416 1600 352
WIRE 1936 416 1600 416
WIRE 2064 416 2000 416
WIRE 2224 416 2064 416
WIRE -176 432 -240 432
WIRE -128 432 -176 432
WIRE 160 432 96 432
WIRE 1600 448 1600 416
WIRE 1792 448 1792 384
WIRE 2064 464 2064 416
WIRE 2176 464 2176 384
WIRE -176 496 -176 432
WIRE 1424 496 1312 496
WIRE 1456 496 1424 496
WIRE 1552 496 1520 496
WIRE 1888 496 1840 496
WIRE -112 512 -112 480
WIRE -16 512 -112 512
WIRE 80 512 80 480
WIRE 80 512 -16 512
WIRE 1424 528 1424 496
WIRE 1568 576 1568 544
WIRE 1696 576 1568 576
WIRE 1824 576 1824 544
WIRE 1824 576 1696 576
WIRE 2064 576 2064 528
WIRE 2176 576 2176 528
WIRE -176 592 -176 560
WIRE 1424 624 1424 592
WIRE 1456 624 1424 624
WIRE 1888 624 1888 496
WIRE 1888 624 1520 624
WIRE -16 672 -16 512
WIRE 1424 672 1424 624
WIRE 1696 704 1696 576
WIRE -304 720 -352 720
WIRE -176 720 -240 720
WIRE -80 720 -176 720
WIRE -352 752 -352 720
WIRE -176 768 -176 720
WIRE -16 816 -16 768
WIRE 1696 816 1696 784
WIRE -176 864 -176 832
WIRE -80 864 -176 864
WIRE -176 928 -176 864
WIRE -16 960 -16 912
WIRE -176 1008 -176 992
WIRE -16 1056 -16 1024
WIRE -176 1104 -176 1072
FLAG 432 624 0
FLAG -16 176 Vpp
IOPIN -16 176 BiDir
FLAG 432 544 Vpp
IOPIN 432 544 BiDir
FLAG 512 544 in
IOPIN 512 544 In
FLAG 512 624 0
FLAG 320 624 0
FLAG 320 544 Vneg
IOPIN 320 544 BiDir
FLAG -240 432 in
IOPIN -240 432 In
FLAG -352 752 0
FLAG 160 432 0
FLAG -176 592 0
FLAG -16 1056 Vneg
IOPIN -16 1056 BiDir
FLAG -176 1104 Vneg
IOPIN -176 1104 BiDir
FLAG 1696 176 Vpp
IOPIN 1696 176 BiDir
FLAG 1312 496 in
IOPIN 1312 496 In
FLAG 1696 816 Vsink
IOPIN 1696 816 BiDir
FLAG 2064 576 Vneg
IOPIN 2064 576 BiDir
FLAG 2176 576 Vneg
IOPIN 2176 576 BiDir
FLAG 1424 672 0
FLAG 2224 384 Out1
IOPIN 2224 384 Out
FLAG 2224 416 Out2
IOPIN 2224 416 Out
SYMBOL Tubes/6SN7 48 432 M0
SYMATTR InstName U1
SYMBOL voltage 432 528 R0
SYMATTR InstName V1
SYMATTR Value 210
SYMBOL voltage 512 528 R0
SYMATTR InstName V2
SYMATTR Value SINE(0 0.5490 1k)
SYMBOL voltage 320 528 R0
SYMATTR InstName V3
SYMATTR Value -10
SYMBOL Tubes/6SN7 -80 432 R0
SYMATTR InstName U2
SYMBOL r -80 288 R90
SYMATTR InstName R1
SYMATTR Value 17k
SYMBOL r 48 288 R90
SYMATTR InstName R2
SYMATTR Value 17k
SYMBOL r -176 496 R90
SYMATTR InstName R3
SYMATTR Value 1Meg
SYMBOL LED -192 1008 R0
SYMATTR InstName D1
SYMATTR Value SFH4346
SYMBOL r -240 720 R180
SYMATTR InstName R4
SYMATTR Value 4.3k
SYMBOL r -176 768 R90
SYMATTR InstName R5
SYMATTR Value 1k
SYMBOL r -16 960 R90
SYMATTR InstName R6
SYMATTR Value 42.22
SYMBOL npn -64 720 R0
SYMATTR InstName Q1
SYMATTR Value BC547C
SYMBOL npn -64 864 R0
SYMATTR InstName Q2
SYMATTR Value BC547C
SYMBOL r -176 928 R90
SYMATTR InstName R7
SYMATTR Value 38.8
SYMBOL Tubes/6SN7 1792 496 M0
SYMATTR InstName U3
SYMBOL Tubes/6SN7 1600 496 R0
SYMATTR InstName U4
SYMBOL r 1600 288 R90
WINDOW 0 806 46 VRight 2
SYMATTR InstName R8
SYMATTR Value 15k
SYMBOL r 1792 288 R90
WINDOW 0 801 225 VRight 2
SYMATTR InstName R9
SYMATTR Value 15k
SYMBOL current 1696 704 R0
WINDOW 0 -143 532 Left 2
SYMATTR InstName I1
SYMATTR Value 6m
SYMBOL cap 1904 368 R90
WINDOW 0 767 338 VBottom 2
WINDOW 3 -29 35 VTop 2
SYMATTR InstName C1
SYMATTR Value 100nF
SYMBOL cap 2000 400 R90
WINDOW 0 721 463 VBottom 2
WINDOW 3 38 32 VTop 2
SYMATTR InstName C2
SYMATTR Value 100nF
SYMBOL r 2064 464 R90
WINDOW 0 651 480 VRight 2
SYMATTR InstName R10
SYMATTR Value 220k
SYMBOL r 2176 464 R90
WINDOW 0 632 607 VRight 2
SYMATTR InstName R11
SYMATTR Value 220k
SYMBOL r 1456 496 R0
WINDOW 0 100 607 VRight 2
WINDOW 3 50 38 Right 2
SYMATTR InstName R12
SYMATTR Value 10k
SYMBOL r 1456 624 R0
WINDOW 0 91 480 VRight 2
WINDOW 3 47 -32 Right 2
SYMATTR InstName R13
SYMATTR Value 10k
SYMBOL r 1424 528 R90
WINDOW 0 545 -150 VRight 2
SYMATTR InstName R14
SYMATTR Value 1Meg
TEXT 336 416 Left 2 !.param vg 0
TEXT 344 440 Left 2 !.tran 0 10 9.99 10u
TEXT 336 352 Left 2 !.OPTIONS numdgt=7\n.OPTIONS plotwinsize=0\n.four 1k 10 V(n001)
TEXT 352 320 Left 2 ;-50
TEXT 352 456 Left 2 ;.ac dec 100 1 100k
TEXT 304 680 Left 2 !.MODEL SFH4346 D	\n+	IS=	4.37E-14\n+	N=	1.806132146\n+	RS=	2.129475292\n+	IKF=	164.2918925\n+	IBV =	2.00E-07\n+	NBV =	105\n+	IBVL =	1.00E-06\n+	NBVL =	20\n+	BV =	28\n+	CJO =	1.67E-11\n+	TT =	8.00E-09\n+	EG =	1.3
