Version 4
SHEET 1 1052 924
WIRE 304 192 304 160
WIRE 64 240 64 208
WIRE 512 256 512 192
WIRE -240 288 -272 288
WIRE -16 288 -240 288
WIRE 304 304 304 256
WIRE 368 304 304 304
WIRE 464 304 432 304
WIRE 720 304 640 304
WIRE -16 320 -16 288
WIRE 304 320 304 304
WIRE -64 336 -96 336
WIRE 720 352 688 352
WIRE 64 368 64 304
WIRE 64 368 32 368
WIRE 96 368 64 368
WIRE 208 368 160 368
WIRE 256 368 208 368
WIRE 480 368 480 352
WIRE 592 368 480 368
WIRE -240 384 -240 288
WIRE 208 384 208 368
WIRE 480 384 480 368
WIRE 720 400 720 352
WIRE 208 464 208 448
WIRE 208 464 48 464
WIRE -240 496 -240 448
WIRE -240 496 -272 496
WIRE -224 496 -240 496
WIRE -96 496 -96 336
WIRE -96 496 -144 496
WIRE 48 496 48 464
WIRE 48 496 32 496
WIRE 80 496 48 496
WIRE 272 496 272 416
WIRE 272 496 160 496
WIRE 480 496 480 448
WIRE 480 496 416 496
WIRE 608 496 608 416
WIRE 640 496 608 496
WIRE 992 496 992 480
WIRE 992 496 896 496
WIRE 48 528 48 496
WIRE 208 528 48 528
WIRE 208 544 208 528
WIRE 480 544 480 496
WIRE -16 576 -16 560
WIRE 272 576 272 496
WIRE 608 576 608 496
WIRE 64 624 32 624
WIRE 96 624 64 624
WIRE 208 624 208 608
WIRE 208 624 160 624
WIRE 256 624 208 624
WIRE 480 624 480 608
WIRE 592 624 480 624
WIRE 480 640 480 624
WIRE 720 640 720 592
WIRE 720 640 688 640
WIRE -96 656 -96 496
WIRE -64 656 -96 656
WIRE 64 688 64 624
WIRE 304 688 304 672
WIRE 368 688 304 688
WIRE 464 688 432 688
WIRE 720 688 640 688
WIRE -16 704 -16 672
WIRE 304 736 304 688
WIRE 64 784 64 752
WIRE 512 800 512 736
WIRE 304 832 304 800
FLAG 512 192 Vpp
IOPIN 512 192 BiDir
FLAG 416 496 Vneg
IOPIN 416 496 BiDir
FLAG 512 800 Vpp
IOPIN 512 800 BiDir
FLAG 608 496 0
FLAG 992 560 0
FLAG 896 608 0
FLAG 992 480 out
IOPIN 992 480 Out
FLAG -256 96 0
FLAG -256 16 Vpp
IOPIN -256 16 BiDir
FLAG -176 16 in
FLAG -176 96 0
FLAG -368 96 0
FLAG -368 16 Vneg
IOPIN -368 16 BiDir
FLAG 304 832 Vpp
IOPIN 304 832 BiDir
FLAG 32 496 Vneg
IOPIN 32 496 BiDir
FLAG 304 160 Vpp
IOPIN 304 160 BiDir
FLAG 64 208 Vpp
IOPIN 64 208 BiDir
FLAG 64 784 Vpp
IOPIN 64 784 BiDir
FLAG -272 496 0
FLAG -16 704 0
FLAG -272 288 in
SYMBOL Tubes/6SN7 512 304 R0
SYMATTR InstName U1
SYMBOL r 480 384 R90
SYMATTR InstName R1
SYMATTR Value 26.6k
SYMBOL Tubes/6SN7 512 688 M180
SYMATTR InstName U2
SYMBOL r 480 608 M270
WINDOW 0 40 22 VRight 2
SYMATTR InstName R2
SYMATTR Value 26.6k
SYMBOL voltage 736 496 R90
WINDOW 0 -32 56 VBottom 2
WINDOW 3 32 56 VTop 2
SYMATTR InstName V1
SYMATTR Value 430
SYMBOL r 992 496 R90
SYMATTR InstName R3
SYMATTR Value 7
SYMBOL Trafos/P2647 800 496 R0
SYMATTR InstName U3
SYMBOL NormanKoren/6L6GC 640 640 M180
SYMATTR InstName U4
SYMBOL NormanKoren/6L6GC 640 352 R0
SYMATTR InstName U5
SYMBOL voltage -256 0 R0
SYMATTR InstName V2
SYMATTR Value 205
SYMBOL voltage -176 0 R0
SYMATTR InstName V3
SYMATTR Value SINE(0 0.5490 1k)
SYMATTR Value2 AC 1
SYMBOL voltage -368 0 R0
SYMATTR InstName V4
SYMATTR Value -311
SYMBOL Tubes/6SN7 304 624 M180
SYMATTR InstName U6
SYMBOL Tubes/6SN7 304 368 R0
SYMATTR InstName U7
SYMBOL r 304 192 R90
SYMATTR InstName R4
SYMATTR Value 32250
SYMBOL r 304 800 R270
SYMATTR InstName R5
SYMATTR Value 32250
SYMBOL current 160 496 R90
WINDOW 0 -32 40 VBottom 2
WINDOW 3 32 40 VTop 2
SYMATTR InstName I1
SYMATTR Value 16m
SYMBOL r 368 304 R0
SYMATTR InstName R6
SYMATTR Value 10k
SYMBOL r 368 688 R0
SYMATTR InstName R7
SYMATTR Value 10k
SYMBOL Tubes/6SN7 -16 368 R90
SYMATTR InstName U8
SYMBOL r 64 304 R270
SYMATTR InstName R9
SYMATTR Value 15k
SYMBOL cap 160 352 R90
WINDOW 0 0 32 VBottom 2
WINDOW 3 32 32 VTop 2
SYMATTR InstName C2
SYMATTR Value 1µ
SYMBOL r 208 384 R90
SYMATTR InstName R11
SYMATTR Value 220k
SYMBOL Tubes/6SN7 -16 624 M270
SYMATTR InstName U10
SYMBOL r 64 688 M90
SYMATTR InstName R12
SYMATTR Value 15k
SYMBOL cap 160 640 M270
WINDOW 0 32 32 VTop 2
WINDOW 3 0 32 VBottom 2
SYMATTR InstName C3
SYMATTR Value 1µ
SYMBOL r 208 608 M270
SYMATTR InstName R13
SYMATTR Value 220k
SYMBOL current -144 496 R90
WINDOW 0 -32 40 VBottom 2
WINDOW 3 32 40 VTop 2
SYMATTR InstName I3
SYMATTR Value 12m
SYMBOL r -240 384 R90
SYMATTR InstName R8
SYMATTR Value 1Meg
TEXT -360 -120 Left 2 !.tran 0 1 0.99
TEXT -368 -208 Left 2 !.OPTIONS numdgt=7\n.OPTIONS plotwinsize=0\n.four 1k 10 V(out)
TEXT -352 -264 Left 2 ;-50
TEXT 472 56 Left 2 ;.ac dec 100 10 100meg
TEXT -8 -224 Left 2 ;Refazer tudo para \n- 430V no CT\n- -45 de grade\n- 6k6:7R ou 5k775\n- Essa saída ta com 50Vpk nas entradas \n- Resultado: 1.123% THD a 31,50WRMS
