Version 4
SHEET 1 4956 2840
WIRE -432 800 -560 800
WIRE -304 800 -432 800
WIRE -432 832 -432 800
WIRE -304 832 -304 800
WIRE -560 880 -560 800
WIRE -432 928 -432 896
WIRE -432 928 -480 928
WIRE -304 928 -304 896
WIRE -80 928 -304 928
WIRE 64 928 -80 928
WIRE 176 928 64 928
WIRE 384 928 240 928
WIRE 816 928 384 928
WIRE 1120 928 880 928
WIRE -432 944 -432 928
WIRE -304 944 -304 928
WIRE 384 992 384 928
WIRE -560 1040 -560 960
WIRE -432 1040 -432 1008
WIRE -432 1040 -560 1040
WIRE -304 1040 -304 1008
WIRE -304 1040 -432 1040
WIRE 64 1056 64 928
WIRE 336 1056 64 1056
WIRE 560 1056 432 1056
WIRE 720 1056 624 1056
WIRE 800 1056 720 1056
WIRE 992 1056 928 1056
WIRE 1120 1056 1120 928
WIRE 1120 1056 992 1056
WIRE 1344 1056 1120 1056
WIRE -80 1120 -80 928
WIRE 1120 1136 1120 1056
WIRE 720 1184 720 1056
WIRE 992 1184 992 1056
WIRE 1344 1232 1344 1056
WIRE -480 1264 -480 928
WIRE -160 1264 -480 1264
WIRE -80 1264 -80 1184
WIRE -80 1264 -160 1264
WIRE 864 1264 864 1120
WIRE 1120 1264 1120 1200
WIRE 1120 1264 864 1264
WIRE 864 1296 864 1264
WIRE 1120 1312 1120 1264
WIRE 1344 1344 1344 1296
WIRE 864 1392 864 1360
WIRE 992 1392 992 1248
WIRE 992 1392 864 1392
WIRE 864 1424 864 1392
WIRE 1120 1424 1120 1376
WIRE 720 1552 720 1248
WIRE 864 1552 864 1488
WIRE 864 1552 720 1552
WIRE 1120 1552 1120 1488
WIRE 1120 1552 864 1552
WIRE 1344 1552 1344 1408
WIRE 1344 1552 1120 1552
FLAG 864 1552 0
FLAG -160 1264 0
FLAG 448 768 0
SYMBOL npn 384 1008 M90
SYMATTR InstName Q1
SYMATTR Value mje340
SYMBOL r 176 928 R0
SYMATTR InstName R1
SYMATTR Value 3.3k
SYMBOL r 560 1056 R0
SYMATTR InstName R2
SYMATTR Value 47
SYMBOL cap 704 1184 R0
SYMATTR InstName C1
SYMATTR Value 470n
SYMBOL cap 848 1424 R0
SYMATTR InstName C2
SYMATTR Value 470n
SYMBOL cap 1328 1344 R0
SYMATTR InstName C3
SYMATTR Value 470n
SYMBOL diode 1008 1248 R180
WINDOW 0 24 64 Left 2
WINDOW 3 24 0 Left 2
SYMATTR InstName D1
SYMATTR Value 1N4148
SYMBOL r 864 1296 R90
SYMATTR InstName R3
SYMATTR Value 100
SYMBOL zener 880 912 R90
WINDOW 0 -4 32 VBottom 2
WINDOW 3 36 32 VTop 2
SYMATTR InstName D2
SYMATTR Value BZX84C10VL
SYMATTR Description Diode
SYMATTR Type diode
SYMBOL r 1344 1232 R90
SYMATTR InstName R4
SYMATTR Value 2.7
SYMBOL r 1120 1136 R90
SYMATTR InstName R5
SYMATTR Value 220
SYMBOL r 1120 1312 R90
SYMATTR InstName R6
SYMATTR Value 35000
SYMBOL cap -64 1184 R180
WINDOW 0 24 56 Left 2
WINDOW 3 24 8 Left 2
SYMATTR InstName C4
SYMATTR Value 220µ
SYMBOL voltage -560 864 R0
SYMATTR InstName V1
SYMATTR Value SINE(0 250 60)
SYMBOL schottky -448 944 R0
WINDOW 0 39 20 Left 2
WINDOW 3 40 44 Left 2
SYMATTR InstName D3
SYMATTR Value UPSC600
SYMATTR Description Diode
SYMATTR Type diode
SYMBOL schottky -320 832 R0
WINDOW 0 39 20 Left 2
WINDOW 3 40 44 Left 2
SYMATTR InstName D4
SYMATTR Value UPSC600
SYMATTR Description Diode
SYMATTR Type diode
SYMBOL schottky -288 1008 R180
WINDOW 0 24 64 Left 2
WINDOW 3 24 0 Left 2
SYMATTR InstName D5
SYMATTR Value UPSC600
SYMATTR Description Diode
SYMATTR Type diode
SYMBOL schottky -416 896 R180
WINDOW 0 24 64 Left 2
WINDOW 3 24 0 Left 2
SYMATTR InstName D6
SYMATTR Value UPSC600
SYMATTR Description Diode
SYMATTR Type diode
SYMBOL r 1120 1424 R90
SYMATTR InstName R7
SYMATTR Value 858
SYMBOL Reguladores/LM317T 864 1072 R0
SYMATTR InstName U1
TEXT -1376 80 Left 2 !.MODEL mje340 NPN(IS=1.03431e-13 BF=172.974 NF=0.939811 VAF=27.3487 IKF=0.0260146 ISE=4.48447e-11 NE=1.61605 BR=16.6725 NR=0.796984 VAR=6.11596 IKR=0.10004 ISC=9.99914e-14 NC=1.99995 RB=1.47761 IRB=0.2 RBM=1.47761 RE=0.0001 RC=1.42228 XTB=2.70726 XTI=1 EG=1.206 CJE=1e-11 VJE=0.75 MJE=0.33 TF=1e-09 XTF=1 VTF=10 ITF=0.01 CJC=1e-11 VJC=0.75 MJC=0.33 XCJC=0.9 FC=0.5 CJS=0 VJS=0.75 MJS=0.5 TR=1e-07 PTF=0 Vceo=300 Icrating=0.5A mfg=OnSemi)
TEXT -952 680 Left 2 !.tran 0 5 4 100u
