Version 4
SHEET 1 1120 680
WIRE -1104 -752 -1104 -784
WIRE -848 -752 -848 -784
WIRE 224 -720 224 -784
WIRE 80 -672 16 -672
WIRE 176 -672 144 -672
WIRE 432 -672 352 -672
WIRE -1104 -656 -1104 -688
WIRE -1056 -656 -1104 -656
WIRE -528 -656 -992 -656
WIRE -384 -656 -384 -688
WIRE -160 -656 -160 -688
WIRE -848 -624 -848 -688
WIRE -816 -624 -848 -624
WIRE -544 -624 -752 -624
WIRE 432 -624 400 -624
WIRE 192 -608 192 -624
WIRE 304 -608 192 -608
WIRE -1104 -592 -1104 -656
WIRE -848 -592 -848 -624
WIRE 192 -592 192 -608
WIRE -384 -576 -384 -592
WIRE 16 -576 16 -672
WIRE 16 -576 -384 -576
WIRE 432 -576 432 -624
WIRE -1280 -544 -1312 -544
WIRE -1248 -544 -1280 -544
WIRE -1152 -544 -1184 -544
WIRE -896 -544 -912 -544
WIRE -720 -544 -800 -544
WIRE -160 -544 -160 -592
WIRE 16 -544 -160 -544
WIRE -384 -528 -384 -576
WIRE -160 -528 -160 -544
WIRE -1280 -496 -1280 -544
WIRE -720 -496 -720 -544
WIRE -528 -480 -528 -656
WIRE -512 -480 -528 -480
WIRE -432 -480 -448 -480
WIRE -64 -480 -112 -480
WIRE 192 -480 192 -528
WIRE 192 -480 128 -480
WIRE 320 -480 320 -560
WIRE 704 -480 704 -496
WIRE 704 -480 608 -480
WIRE -1136 -464 -1136 -496
WIRE -976 -464 -1136 -464
WIRE -816 -464 -816 -496
WIRE -816 -464 -976 -464
WIRE -528 -464 -528 -480
WIRE -64 -448 -64 -480
WIRE 192 -432 192 -480
WIRE 320 -400 320 -480
WIRE -1280 -384 -1280 -432
WIRE -1136 -384 -1280 -384
WIRE -528 -384 -528 -400
WIRE -720 -368 -720 -432
WIRE -576 -368 -720 -368
WIRE 192 -352 192 -368
WIRE 304 -352 192 -352
WIRE -1136 -336 -1136 -384
WIRE 192 -336 192 -352
WIRE 432 -336 432 -384
WIRE 432 -336 400 -336
WIRE -576 -320 -576 -368
WIRE -416 -320 -416 -432
WIRE -128 -320 -128 -432
WIRE -128 -320 -416 -320
WIRE -544 -288 -544 -624
WIRE -64 -288 -64 -384
WIRE -64 -288 -544 -288
WIRE 16 -288 16 -544
WIRE 80 -288 16 -288
WIRE 176 -288 144 -288
WIRE 432 -288 352 -288
WIRE -976 -272 -976 -464
WIRE -416 -256 -416 -320
WIRE -64 -240 -64 -288
WIRE -1280 -224 -1280 -384
WIRE -1136 -224 -1136 -272
WIRE -1040 -224 -1136 -224
WIRE -720 -208 -720 -368
WIRE -576 -208 -576 -256
WIRE -480 -208 -576 -208
WIRE -1136 -176 -1136 -224
WIRE 224 -176 224 -240
WIRE -576 -160 -576 -208
WIRE -976 -128 -976 -176
WIRE -64 -128 -64 -176
WIRE -416 -112 -416 -160
WIRE -1136 -80 -1136 -112
WIRE -1040 -80 -1136 -80
WIRE -576 -64 -576 -96
WIRE -480 -64 -576 -64
WIRE -1136 -16 -1136 -80
WIRE -576 0 -576 -64
WIRE -976 16 -976 -32
WIRE -416 32 -416 -16
WIRE -1136 64 -1136 48
WIRE -576 80 -576 64
WIRE -976 112 -976 80
WIRE -416 128 -416 96
WIRE -1136 160 -1136 128
WIRE -576 176 -576 144
FLAG 224 -784 Vpp
IOPIN 224 -784 BiDir
FLAG 128 -480 Vneg
IOPIN 128 -480 BiDir
FLAG 224 -176 Vpp
IOPIN 224 -176 BiDir
FLAG 320 -480 0
FLAG 704 -416 0
FLAG 608 -368 0
FLAG 704 -496 out
IOPIN 704 -496 Out
FLAG 320 224 0
FLAG 512 144 in
FLAG 512 224 0
FLAG 160 224 0
FLAG 160 144 Vneg
IOPIN 160 144 BiDir
FLAG -160 -688 Vpp
IOPIN -160 -688 BiDir
FLAG -384 -688 Vpp
IOPIN -384 -688 BiDir
FLAG -1104 -784 Vpp
IOPIN -1104 -784 BiDir
FLAG -848 -784 Vpp
IOPIN -848 -784 BiDir
FLAG -1312 -544 in
FLAG -720 -208 0
FLAG -1280 -224 0
FLAG -416 128 Vneg
IOPIN -416 128 BiDir
FLAG -64 -128 Vneg
IOPIN -64 -128 BiDir
FLAG -576 176 Vneg
IOPIN -576 176 BiDir
FLAG -528 -384 Vneg
IOPIN -528 -384 BiDir
FLAG 0 224 0
FLAG 0 144 Vsink
IOPIN 0 144 BiDir
FLAG -976 112 Vsink
IOPIN -976 112 BiDir
FLAG -1136 160 Vsink
IOPIN -1136 160 BiDir
FLAG 432 -480 B+
IOPIN 432 -480 BiDir
FLAG -176 144 B+
IOPIN -176 144 BiDir
FLAG -176 224 0
FLAG 320 144 Vpp
IOPIN 320 144 BiDir
SYMBOL Tubes/6SN7 224 -672 R0
SYMATTR InstName U1
SYMBOL r 192 -592 R90
SYMATTR InstName R1
SYMATTR Value 26.6k
SYMBOL Tubes/6SN7 224 -288 M180
SYMATTR InstName U2
SYMBOL r 192 -368 M270
WINDOW 0 40 22 VRight 2
SYMATTR InstName R2
SYMATTR Value 26.6k
SYMBOL r 704 -480 R90
SYMATTR InstName R3
SYMATTR Value 7
SYMBOL Trafos/P2647 512 -480 R0
SYMATTR InstName U3
SYMBOL NormanKoren/6L6GC 352 -336 M180
SYMATTR InstName U4
SYMBOL NormanKoren/6L6GC 352 -624 R0
SYMATTR InstName U5
SYMBOL voltage 320 128 R0
SYMATTR InstName V1
SYMATTR Value 205
SYMBOL voltage 512 128 R0
SYMATTR InstName V2
SYMATTR Value SINE(0 0.5490 1k)
SYMATTR Value2 AC 1
SYMBOL voltage 160 128 R0
SYMATTR InstName V3
SYMATTR Value -310
SYMBOL Tubes/6SN7 -160 -480 M0
SYMATTR InstName U6
SYMBOL Tubes/6SN7 -384 -480 R0
SYMATTR InstName U7
SYMBOL r -384 -656 R90
SYMATTR InstName R4
SYMATTR Value 32250
SYMBOL r -160 -656 R90
SYMATTR InstName R5
SYMATTR Value 32250
SYMBOL r 80 -288 R0
SYMATTR InstName R6
SYMATTR Value 10k
SYMBOL r 144 -672 R180
SYMATTR InstName R7
SYMATTR Value 10k
SYMBOL Tubes/6SN7 -1104 -544 R0
SYMATTR InstName U8
SYMBOL r -1104 -688 M270
SYMATTR InstName R8
SYMATTR Value 15k
SYMBOL cap -1056 -672 M90
WINDOW 0 0 32 VBottom 2
WINDOW 3 32 32 VTop 2
SYMATTR InstName C1
SYMATTR Value 1µ
SYMBOL r -528 -464 R90
SYMATTR InstName R9
SYMATTR Value 220k
SYMBOL Tubes/6SN7 -848 -544 M0
SYMATTR InstName U9
SYMBOL r -848 -688 R270
SYMATTR InstName R10
SYMATTR Value 15k
SYMBOL cap -752 -640 R90
WINDOW 0 0 32 VBottom 2
WINDOW 3 32 32 VTop 2
SYMATTR InstName C2
SYMATTR Value 1µ
SYMBOL r -64 -240 M90
SYMATTR InstName R11
SYMATTR Value 220k
SYMBOL r -1280 -496 R90
SYMATTR InstName R12
SYMATTR Value 1Meg
SYMBOL LED -592 80 R0
SYMATTR InstName D1
SYMATTR Value SFH4346
SYMBOL r -576 -320 R90
SYMATTR InstName R13
SYMATTR Value 137k
SYMBOL r -576 -160 R90
SYMATTR InstName R14
SYMATTR Value 820
SYMBOL r -416 32 R90
SYMATTR InstName R15
SYMATTR Value 33.37
SYMBOL npn -464 -208 R0
SYMATTR InstName Q1
SYMATTR Value BC547C
SYMBOL npn -464 -64 R0
SYMATTR InstName Q2
SYMATTR Value BC547C
SYMBOL r -576 0 R90
SYMATTR InstName R16
SYMATTR Value 37.6
SYMBOL LED -1152 64 R0
SYMATTR InstName D2
SYMATTR Value SFH4346
SYMBOL r -1136 -336 R90
SYMATTR InstName R17
SYMATTR Value 4.3k
SYMBOL r -1136 -176 R90
SYMATTR InstName R18
SYMATTR Value 1k
SYMBOL r -976 16 R90
SYMATTR InstName R19
SYMATTR Value 42.22
SYMBOL npn -1024 -224 R0
SYMATTR InstName Q3
SYMATTR Value BC547C
SYMBOL npn -1024 -80 R0
SYMATTR InstName Q4
SYMATTR Value BC547C
SYMBOL r -1136 -16 R90
SYMATTR InstName R20
SYMATTR Value 38.8
SYMBOL voltage 0 128 R0
SYMATTR InstName V4
SYMATTR Value -10
SYMBOL r -1184 -544 R180
SYMATTR InstName R21
SYMATTR Value 10k
SYMBOL r -720 -432 R270
SYMATTR InstName R22
SYMATTR Value 10k
SYMBOL r -64 -448 R90
SYMATTR InstName R23
SYMATTR Value 10k
SYMBOL r -512 -480 R0
SYMATTR InstName R24
SYMATTR Value 10k
SYMBOL voltage -176 128 R0
SYMATTR InstName V5
SYMATTR Value 430
TEXT 328 8 Left 2 ;.tran 0 5 4.99 10u
TEXT 320 -80 Left 2 !.OPTIONS numdgt=7\n.OPTIONS plotwinsize=0\n.four 1k 10 V(out)\n.four 1k 10 V(n004)
TEXT 320 -104 Left 2 !.ac dec 100 10 100meg
TEXT 680 -96 Left 2 ;Refazer tudo para \n- 430V no CT\n- -45 de grade\n- 6k6:7R ou 5k775\n- Essa saída ta com 50Vpk nas entradas \n- Resultado: 1.123% THD a 31,50WRMS
TEXT 696 48 Left 2 !.MODEL SFH4346 D	\n+	IS=	4.37E-14\n+	N=	1.806132146\n+	RS=	2.129475292\n+	IKF=	164.2918925\n+	IBV =	2.00E-07\n+	NBV =	105\n+	IBVL =	1.00E-06\n+	NBVL =	20\n+	BV =	28\n+	CJO =	1.67E-11\n+	TT =	8.00E-09\n+	EG =	1.3
TEXT 104 40 Left 2 ;Total Harmonic Distortion: 0.762873%(0.767280%)
TEXT 120 -616 Left 2 ;-45V
TEXT 120 -352 Left 2 ;-45V
TEXT -312 -336 Left 2 ;-298V
TEXT -1000 -480 Left 2 ;2.7V
TEXT -240 256 Left 2 ;88mA med
TEXT -72 256 Left 2 ;13.7mA med
TEXT 104 256 Left 2 ;38mA med
TEXT 264 256 Left 2 ;48mA med
