Version 4
SHEET 1 1228 704
WIRE 448 -48 -96 -48
WIRE 752 -48 512 -48
WIRE -544 64 -672 64
WIRE 448 64 352 64
WIRE 624 64 512 64
WIRE -672 80 -672 64
WIRE -672 80 -848 80
WIRE -672 96 -672 80
WIRE -544 96 -544 64
WIRE -848 128 -848 80
WIRE -672 192 -672 160
WIRE -672 192 -720 192
WIRE -544 192 -544 160
WIRE -416 192 -544 192
WIRE -192 192 -416 192
WIRE -48 192 -192 192
WIRE 112 192 48 192
WIRE 192 192 112 192
WIRE 352 192 352 64
WIRE 352 192 256 192
WIRE 432 192 352 192
WIRE 624 192 624 64
WIRE 624 192 560 192
WIRE 752 192 752 -48
WIRE 752 192 624 192
WIRE 896 192 752 192
WIRE 976 192 896 192
WIRE 1136 192 976 192
WIRE -672 208 -672 192
WIRE -544 208 -544 192
WIRE 112 224 112 192
WIRE -192 256 -192 192
WIRE -848 272 -848 208
WIRE -672 272 -848 272
WIRE 624 272 624 192
WIRE 752 272 752 192
WIRE 32 288 32 240
WIRE 64 288 32 288
WIRE 256 288 160 288
WIRE 352 288 352 192
WIRE 352 288 256 288
WIRE -672 304 -672 272
WIRE -544 304 -544 272
WIRE -544 304 -672 304
WIRE -416 304 -416 192
WIRE 256 320 256 288
WIRE 352 320 352 288
WIRE -192 368 -192 320
WIRE -96 368 -96 -48
WIRE -96 368 -192 368
WIRE 32 368 32 288
WIRE 32 368 -96 368
WIRE 1136 384 1136 192
WIRE -96 400 -96 368
WIRE 32 400 32 368
WIRE 496 400 496 256
WIRE 624 400 624 336
WIRE 624 400 496 400
WIRE 752 400 752 336
WIRE 752 400 624 400
WIRE 896 480 896 192
WIRE 976 480 976 192
WIRE 496 512 496 400
WIRE 752 512 752 400
WIRE -720 688 -720 192
WIRE -416 688 -416 368
WIRE -416 688 -720 688
WIRE -96 688 -96 464
WIRE -96 688 -416 688
WIRE 32 688 32 464
WIRE 32 688 -96 688
WIRE 256 688 256 384
WIRE 256 688 32 688
WIRE 352 688 352 384
WIRE 352 688 256 688
WIRE 496 688 496 576
WIRE 496 688 352 688
WIRE 752 688 752 576
WIRE 752 688 496 688
WIRE 896 688 896 544
WIRE 896 688 752 688
WIRE 976 688 976 544
WIRE 976 688 896 688
WIRE 1136 688 1136 464
WIRE 1136 688 976 688
FLAG 496 688 0
SYMBOL nmos -48 240 R270
SYMATTR InstName M1
SYMATTR Value STW11NM80
SYMBOL r -192 320 R270
SYMATTR InstName R1
SYMATTR Value 220k
SYMBOL cap -400 368 R180
WINDOW 0 24 56 Left 2
WINDOW 3 24 8 Left 2
SYMATTR InstName C1
SYMATTR Value 165µ
SYMATTR SpiceLine Rser=660m
SYMBOL cap 336 320 R0
SYMATTR InstName C3
SYMATTR Value 4.7µ
SYMBOL cap 960 480 R0
SYMATTR InstName C4
SYMATTR Value 4.7µ
SYMBOL zener 512 48 R90
WINDOW 0 -4 32 VBottom 2
WINDOW 3 36 32 VTop 2
SYMATTR InstName D1
SYMATTR Value KDZ33B
SYMATTR Description Diode
SYMATTR Type diode
SYMBOL r 752 272 R90
SYMATTR InstName R2
SYMATTR Value 220
SYMBOL r 752 512 R90
SYMATTR InstName R3
SYMATTR Value 74800
SYMBOL diode 640 336 R180
WINDOW 0 24 64 Left 2
WINDOW 3 24 0 Left 2
SYMATTR InstName D2
SYMATTR Value 1N4148
SYMBOL current 1136 384 R0
SYMATTR InstName I1
SYMATTR Value 10m
SYMBOL Reguladores/LM317T 496 208 R0
SYMATTR InstName U1
SYMBOL zener 512 -64 R90
WINDOW 0 -4 32 VBottom 2
WINDOW 3 36 32 VTop 2
SYMATTR InstName D3
SYMATTR Value TFZ39B
SYMATTR Description Diode
SYMATTR Type diode
SYMBOL npn 112 240 M90
SYMATTR InstName Q1
SYMBOL r 192 192 R0
SYMATTR InstName R4
SYMATTR Value 1
SYMBOL voltage -848 112 R0
SYMATTR InstName V1
SYMATTR Value SINE(0 529.11 60)
SYMATTR SpiceLine Rser=49.705
SYMBOL diode -688 208 R0
SYMATTR InstName D4
SYMATTR Value 1n4007
SYMBOL cap 240 320 R0
SYMATTR InstName C6
SYMATTR Value 470n
SYMBOL diode -560 96 R0
SYMATTR InstName D5
SYMATTR Value 1n4007
SYMBOL diode -528 272 R180
WINDOW 0 40 44 Left 2
WINDOW 3 39 20 Left 2
SYMATTR InstName D6
SYMATTR Value 1n4007
SYMBOL diode -656 160 R180
WINDOW 0 40 44 Left 2
WINDOW 3 39 20 Left 2
SYMATTR InstName D7
SYMATTR Value 1n4007
SYMBOL cap 480 512 R0
SYMATTR InstName C7
SYMATTR Value 3µ
SYMBOL cap 880 480 R0
SYMATTR InstName C8
SYMATTR Value 470n
TEXT 1040 144 Left 2 ;430@180mA
TEXT -792 32 Left 2 ;350V@0.35A
TEXT -360 160 Left 2 ;460V +- 2.6V
TEXT 128 -368 Left 2 !.model 1N4007 D(IS=7.02767n RS=0.0341512 N=1.80803 \n+ EG=1.05743 XTI=5 BV=1000 IBV=5e-08 CJO=1e-11 \n+ VJ=0.7 M=0.5 FC=0.5 TT=1e-07 mfg=OnSemi type=silicon)
TEXT 128 -392 Left 2 !.tran 0 200 0 100u
TEXT 128 -416 Left 2 ;.dc V2 0 60 0.1
