Version 4
SHEET 1 2256 1700
WIRE 1264 288 1056 288
WIRE 1056 304 1056 288
WIRE 720 320 560 320
WIRE 1008 320 720 320
WIRE 1504 336 1504 288
WIRE 560 352 560 320
WIRE 1008 368 992 368
WIRE 992 416 992 368
WIRE 1056 416 1056 384
WIRE 560 464 560 432
WIRE 1504 464 1504 416
FLAG 560 464 0
FLAG 1264 288 A
FLAG 1056 416 0
FLAG 992 416 0
FLAG 720 320 in
FLAG 1504 464 0
FLAG 1504 288 B
SYMBOL VOLTAGE 560 336 R0
SYMATTR InstName V1
SYMATTR Value PULSE(0 1 0 1n 1n 10 20)
SYMBOL E 1056 288 R0
WINDOW 123 24 132 Left 2
SYMATTR Value2 mtol=.1
SYMATTR InstName E2
SYMATTR Value Laplace=1/((s*s)+(2*s)+2)
SYMATTR SpiceLine impulse=fuck.xg
SYMBOL misc\\Epoly 1504 320 R0
SYMATTR InstName E5
SYMATTR Value Value={0.5+0.5*exp(-time)*(-sin(time)-cos(time))}
TEXT 1088 552 Left 2 !.tran 0 10
TEXT 1080 512 Left 2 !.options reltol=.0001 ; <-- reltol is tightened!
TEXT 1184 424 Left 2 ;<-- mtol is tightened!
