Version 4
SHEET 1 3088 1688
WIRE 1888 880 1760 880
WIRE 2000 880 1888 880
WIRE 1760 896 1760 880
WIRE 2000 896 2000 880
WIRE 1888 912 1888 880
WIRE 1760 992 1760 976
WIRE 2000 1008 2000 976
WIRE 2064 1008 2000 1008
WIRE 2160 1008 2128 1008
WIRE 2240 1008 2160 1008
WIRE 2160 1024 2160 1008
WIRE 2000 1056 2000 1008
WIRE 1632 1104 1568 1104
WIRE 1808 1104 1712 1104
WIRE 1888 1104 1888 992
WIRE 1888 1104 1872 1104
WIRE 1936 1104 1888 1104
WIRE 1568 1136 1568 1104
WIRE 1888 1136 1888 1104
WIRE 2160 1136 2160 1104
WIRE 2000 1168 2000 1152
WIRE 2096 1168 2000 1168
WIRE 2000 1184 2000 1168
WIRE 2096 1200 2096 1168
WIRE 1568 1248 1568 1216
WIRE 1888 1280 1888 1216
WIRE 2000 1280 2000 1264
WIRE 2096 1280 2096 1264
FLAG 1760 992 0
FLAG 1568 1248 0
FLAG 2240 1008 OUT
FLAG 2000 1280 0
FLAG 1888 1280 0
FLAG 2096 1280 0
FLAG 2160 1136 0
SYMBOL voltage 1760 880 R0
SYMATTR InstName V2
SYMATTR Value 15
SYMBOL voltage 1568 1120 R0
WINDOW 3 37 57 Left 2
WINDOW 123 24 104 Left 2
SYMATTR Value 0
SYMATTR Value2 AC 1
SYMATTR InstName V1
SYMBOL npn 1936 1056 R0
SYMATTR InstName Q1
SYMATTR Value 2N2222
SYMBOL res 1984 880 R0
SYMATTR InstName R3
SYMATTR Value 1K
SYMBOL res 1984 1168 R0
SYMATTR InstName R5
SYMATTR Value 100
SYMBOL res 1872 896 R0
SYMATTR InstName R1
SYMATTR Value 75K
SYMBOL res 1872 1120 R0
SYMATTR InstName R2
SYMATTR Value 10K
SYMBOL cap 1872 1088 R90
WINDOW 0 0 32 VBottom 2
WINDOW 3 32 32 VTop 2
SYMATTR InstName C1
SYMATTR Value .1µ
SYMBOL cap 2080 1200 R0
SYMATTR InstName C2
SYMATTR Value 10µ
SYMBOL res 2144 1008 R0
SYMATTR InstName R4
SYMATTR Value 100K
SYMBOL cap 2128 992 R90
WINDOW 0 0 32 VBottom 2
WINDOW 3 32 32 VTop 2
SYMATTR InstName C3
SYMATTR Value 1µ
SYMBOL res 1728 1088 R90
WINDOW 0 0 56 VBottom 2
WINDOW 3 32 56 VTop 2
SYMATTR InstName R6
SYMATTR Value 1K
TEXT 1880 1328 Left 2 !.noise V(out) V1 oct 10 1K 100K
TEXT 1536 1384 Left 2 ;To plot NF vs. Frequency:\n10*log10(V(inoise)*V(inoise)/(4*k*300.15*1K))\nNote that the units are dB but will be labeled V/sqrt(Hz)\nIf you add the line\n.func NF(R) 10*log10(V(inoise)*V(inoise)/(4*k*300.15*R))\nto your plot.defs file, then you can conveniently plot the quantity NF(1K)
TEXT 1624 1272 Top 1 ;1K Source Impedance
TEXT 1960 1560 Top 1 ;This example schematic is supplied for informational/educational purposes only.
RECTANGLE Normal 1776 1312 1488 1056 2
