Version 4
SHEET 1 1192 680
WIRE -48 32 -48 -16
WIRE 336 48 320 48
WIRE 448 48 416 48
WIRE 464 48 448 48
WIRE 624 48 528 48
WIRE 736 48 704 48
WIRE 736 304 32 304
WIRE 816 304 800 304
WIRE 736 352 736 320
WIRE 32 400 32 304
WIRE 96 400 32 400
WIRE 496 400 416 400
WIRE 592 400 496 400
WIRE 736 400 592 400
WIRE 816 400 800 400
WIRE 592 416 592 400
WIRE 32 432 32 400
WIRE 416 432 416 400
WIRE 496 432 496 400
WIRE 736 448 736 416
WIRE 416 528 416 496
WIRE 496 528 496 496
WIRE 592 528 592 496
WIRE 32 544 32 512
FLAG 32 544 0
FLAG 736 448 COM
FLAG -48 32 COM
FLAG -48 -16 0
FLAG 448 48 12
FLAG 320 48 0
FLAG 736 48 0
FLAG 96 400 Y
FLAG 416 528 COM
FLAG 496 528 COM
FLAG 592 528 COM
FLAG 816 400 out
FLAG 736 352 COM
FLAG 816 304 sout
SYMBOL voltage 32 416 R0
WINDOW 3 22 95 Left 2
SYMATTR Value pulse(0 1 0 10n 10n 5u 10u)
SYMATTR InstName V2
SYMBOL digital\\schmtbuf 736 336 R0
WINDOW 3 25 86 Left 2
WINDOW 39 34 107 Left 2
SYMATTR Value Vt=.5 Vh=.4m
SYMATTR SpiceLine Trise=25n
SYMATTR InstName A2
SYMATTR Value2 tripdt=5n
SYMBOL misc\\jumper 496 -16 M0
SYMATTR InstName J1
SYMBOL voltage 432 48 M270
WINDOW 0 32 56 VTop 2
WINDOW 3 -32 56 VBottom 2
SYMATTR InstName V3
SYMATTR Value 1.2 Rser=25K
SYMBOL externals\\xr 704 32 R90
WINDOW 0 -16 40 VBottom 2
WINDOW 3 48 40 VTop 2
SYMATTR InstName R1
SYMATTR Value {R}
SYMBOL bi 592 496 M180
WINDOW 0 43 70 Left 2
WINDOW 3 39 20 Left 2
WINDOW 123 42 -21 Left 2
SYMATTR InstName B1
SYMATTR Value I=V(Y)>.5 ? -I(V3) : -1m
SYMATTR Value2 NoJacob
SYMBOL cap 480 432 R0
SYMATTR InstName C2
SYMATTR Value 2.3p
SYMBOL diode 400 496 M180
WINDOW 0 24 72 Left 2
WINDOW 3 24 0 Left 2
SYMATTR InstName D2
SYMATTR Value DX
SYMBOL digital\\schmtbuf 736 240 R0
WINDOW 3 25 86 Left 2
WINDOW 39 29 108 Left 2
SYMATTR Value Vt=.5 Vh=.4m
SYMATTR SpiceLine Trise=25n Td=20n
SYMATTR InstName A1
SYMATTR Value2 tripdt=5n
TEXT -184 48 Left 2 !.model DD D(Ron=1 Roff=1G)
TEXT 568 48 Bottom 2 ;DELAY
TEXT 520 240 Left 2 !.step param R 20K 160K 20K
TEXT 880 160 Left 2 !.model DX D(Vrev=1)
TEXT 992 312 Left 2 !.tran 20u
TEXT 168 168 Left 2 !.meas delay trig V(sout)=.5 rise=2 targ V(out)=.5 rise=2
TEXT 896 112 Left 2 !.param R=160K
TEXT 160 224 Left 2 !.meas Td param 1e9*delay
