Version 4
SHEET 1 3312 2472
WIRE 1888 1824 1856 1824
WIRE 2000 1824 1952 1824
WIRE 2048 1824 2000 1824
WIRE 2160 1824 2112 1824
WIRE 2000 1856 2000 1824
WIRE 1856 1952 1856 1824
WIRE 1968 1952 1856 1952
WIRE 2160 1952 2160 1824
WIRE 2160 1952 2032 1952
WIRE 2160 1968 2160 1952
WIRE 2576 2016 2528 2016
WIRE 2672 2016 2640 2016
WIRE 2160 2048 2160 2032
WIRE 2368 2048 2160 2048
WIRE 2480 2048 2416 2048
WIRE 2160 2064 2160 2048
WIRE 2368 2064 2368 2048
WIRE 2416 2064 2416 2048
WIRE 2528 2064 2528 2016
WIRE 2672 2112 2672 2016
WIRE 2688 2112 2672 2112
WIRE 2768 2112 2752 2112
WIRE 2880 2112 2848 2112
WIRE 2992 2112 2880 2112
WIRE 1856 2128 1856 1952
WIRE 2016 2128 1856 2128
WIRE 2112 2128 2016 2128
WIRE 2992 2128 2992 2112
WIRE 1856 2144 1856 2128
WIRE 2880 2144 2880 2112
WIRE 2016 2160 2016 2128
WIRE 2368 2160 2368 2144
WIRE 2368 2160 2304 2160
WIRE 2304 2176 2304 2160
WIRE 2480 2176 2480 2048
WIRE 2528 2176 2528 2144
WIRE 2528 2176 2480 2176
WIRE 2480 2192 2480 2176
WIRE 2416 2224 2416 2144
WIRE 2576 2224 2416 2224
WIRE 2672 2224 2672 2112
WIRE 2672 2224 2640 2224
WIRE 2880 2224 2880 2208
WIRE 2992 2224 2992 2208
WIRE 1856 2240 1856 2224
WIRE 2016 2240 2016 2224
WIRE 2160 2240 2160 2160
WIRE 2304 2272 2304 2256
FLAG 2000 1856 0
FLAG 1856 2240 0
FLAG 2160 2240 0
FLAG 2304 2272 0
FLAG 2016 2240 0
FLAG 2480 2192 0
FLAG 2880 2224 0
FLAG 2992 2224 0
SYMBOL MISC\\XTAL 2032 1936 R90
WINDOW 0 0 32 VBottom 2
WINDOW 3 49 32 Invisible 2
SYMATTR InstName Y1
SYMATTR Value .25p Lser=1m Rser=.1 Cpar=50p
SYMBOL NJF 2112 2064 R0
SYMATTR InstName J1
SYMATTR Value 2N5484
SYMBOL cap 2144 1968 R0
SYMATTR InstName C3
SYMATTR Value 200p
SYMBOL cap 2112 1808 R90
WINDOW 0 0 32 VBottom 2
WINDOW 3 32 32 VTop 2
SYMATTR InstName C2
SYMATTR Value 100p
SYMBOL cap 1952 1808 R90
WINDOW 0 0 32 VBottom 2
WINDOW 3 32 32 VTop 2
SYMATTR InstName C1
SYMATTR Value 25p
SYMBOL RES 1840 2128 R0
SYMATTR InstName R1
SYMATTR Value 100K
SYMBOL VOLTAGE 2304 2160 R0
SYMATTR InstName V1
SYMATTR Value 10.
SYMBOL diode 2000 2224 M180
WINDOW 0 24 72 Left 2
WINDOW 3 24 0 Left 2
SYMATTR InstName D1
SYMATTR Value 1N4148
SYMBOL ind2 2432 2048 M0
WINDOW 0 6 34 Right 2
WINDOW 3 1 77 Right 2
SYMATTR InstName L2
SYMATTR Value 18
SYMBOL ind2 2544 2048 M0
WINDOW 0 -2 45 Right 2
WINDOW 3 -4 80 Right 2
SYMATTR InstName L3
SYMATTR Value 18
SYMBOL ind2 2352 2048 R0
WINDOW 0 1 36 Right 2
WINDOW 3 -3 70 Right 2
SYMATTR InstName L1
SYMATTR Value 18
SYMBOL diode 2576 2032 R270
WINDOW 0 32 32 VTop 2
WINDOW 3 0 32 VBottom 2
SYMATTR InstName D3
SYMATTR Value 1N4148
SYMBOL diode 2576 2240 R270
WINDOW 0 32 32 VTop 2
WINDOW 3 0 32 VBottom 2
SYMATTR InstName D4
SYMATTR Value 1N4148
SYMBOL cap 2864 2144 R0
SYMATTR InstName C5
SYMATTR Value 20p
SYMBOL ind 2976 2112 R0
SYMATTR InstName L4
SYMATTR Value 3.1
SYMBOL cap 2752 2096 R90
WINDOW 0 0 32 VBottom 2
WINDOW 3 32 32 VTop 2
SYMATTR InstName C6
SYMATTR Value 10p
SYMBOL ind 2752 2128 R270
WINDOW 0 32 56 VTop 2
WINDOW 3 5 56 VBottom 2
SYMATTR InstName L5
SYMATTR Value 6.3
TEXT 2776 2288 Left 2 !.tran 2m startup
TEXT 2392 2048 Bottom 2 !K1 L1 L2 L3 1.
TEXT 2464 2328 Top 1 ;This example schematic is supplied for informational/educational purposes only.
