Version 4
SHEET 1 1612 1108
WIRE 624 128 608 128
WIRE 736 128 688 128
WIRE 768 128 736 128
WIRE 848 128 832 128
WIRE 736 160 736 128
WIRE 608 240 608 128
WIRE 688 240 608 240
WIRE 848 240 848 128
WIRE 848 240 752 240
WIRE 848 256 848 240
WIRE 848 336 848 320
WIRE 1056 336 848 336
WIRE 848 352 848 336
WIRE 1056 352 1056 336
WIRE 608 416 608 240
WIRE 720 416 608 416
WIRE 800 416 720 416
WIRE 608 432 608 416
WIRE 720 432 720 416
WIRE 1056 448 1056 432
WIRE 1056 448 992 448
WIRE 848 464 848 448
WIRE 992 464 992 448
WIRE 720 512 720 496
WIRE 608 528 608 512
WIRE 848 560 848 544
WIRE 992 560 992 544
FLAG 736 160 0
FLAG 608 528 0
FLAG 848 560 0
FLAG 992 560 0
FLAG 720 512 0
FLAG 1056 336 OUT
SYMBOL MISC\\XTAL 752 224 R90
WINDOW 0 0 32 VBottom 2
WINDOW 3 32 32 VTop 2
SYMATTR InstName Y1
SYMATTR Value 0.25p
SYMATTR SpiceLine Rser=0.1 Lser=0.001 Cpar=5e-011
SYMBOL NJF 800 352 R0
SYMATTR InstName J1
SYMATTR Value 2N5484
SYMBOL cap 832 256 R0
SYMATTR InstName C4
SYMATTR Value 200p
SYMBOL cap 832 112 R90
WINDOW 0 0 32 VBottom 2
WINDOW 3 32 32 VTop 2
SYMATTR InstName C5
SYMATTR Value 100p
SYMBOL cap 688 112 R90
WINDOW 0 0 32 VBottom 2
WINDOW 3 32 32 VTop 2
SYMATTR InstName C6
SYMATTR Value 25p
SYMBOL RES 592 416 R0
SYMATTR InstName R6
SYMATTR Value 100K
SYMBOL VOLTAGE 992 448 R0
SYMATTR InstName V3
SYMATTR Value 10.
SYMBOL diode 704 496 M180
WINDOW 0 24 64 Left 2
WINDOW 3 24 0 Left 2
SYMATTR InstName D2
SYMATTR Value 1N4148
SYMBOL ind2 1040 336 R0
WINDOW 0 -4 35 Right 2
WINDOW 3 -4 73 Right 2
SYMATTR InstName L3
SYMATTR Value 12µ
SYMBOL RES 832 448 R0
SYMATTR InstName R7
SYMATTR Value 100
TEXT 168 560 Left 2 !.tran 1m startup
