Version 4
SHEET 1 2772 2552
WIRE 2560 1824 2208 1824
WIRE 2672 1824 2560 1824
WIRE 2560 1856 2560 1824
WIRE 2672 1856 2672 1824
WIRE 2208 1904 2208 1824
WIRE 2288 1968 2256 1968
WIRE 2304 1968 2288 1968
WIRE 2400 1968 2384 1968
WIRE 2448 1968 2400 1968
WIRE 2560 1968 2560 1920
WIRE 2560 1968 2528 1968
WIRE 2624 1968 2560 1968
WIRE 2672 1968 2672 1936
WIRE 2672 1968 2624 1968
WIRE 2032 1984 1920 1984
WIRE 2160 1984 2032 1984
WIRE 2624 1984 2624 1968
WIRE 2032 2000 2032 1984
WIRE 2400 2000 2400 1968
WIRE 1920 2048 1920 1984
WIRE 2624 2080 2624 2064
WIRE 2032 2096 2032 2080
WIRE 2176 2096 2176 2032
WIRE 2400 2096 2400 2064
WIRE 1920 2144 1920 2112
WIRE 1920 2224 1920 2208
WIRE 2288 2224 2288 1968
WIRE 2288 2224 1920 2224
WIRE 1920 2240 1920 2224
WIRE 1920 2320 1920 2304
FLAG 2032 2096 0
FLAG 2624 2080 0
FLAG 2672 1824 OUT
FLAG 2176 2096 0
FLAG 1920 2320 0
FLAG 2400 2096 0
SYMBOL MISC\\XTAL 1936 2112 R180
WINDOW 0 24 72 Left 2
WINDOW 3 24 0 Left 2
SYMATTR InstName Y1
SYMATTR Value .25p Lser=1m Rser=.1 Cpar=50p
SYMBOL VOLTAGE 2624 1968 R0
SYMATTR InstName V1
SYMATTR Value 500
SYMBOL cap 2544 1856 R0
SYMATTR InstName C5
SYMATTR Value 10p
SYMBOL ind 2656 1840 R0
SYMATTR InstName L4
SYMATTR Value 6.3µ
SYMBOL RES 2016 1984 R0
SYMATTR InstName R2
SYMATTR Value 100K
SYMBOL MISC\\VACUUMTUBES\\PENTRODES\\6BQ5 2208 1968 R0
SYMATTR InstName U1
SYMBOL cap 1904 2144 R0
SYMATTR InstName C1
SYMATTR Value 1000p
SYMBOL cap 1904 2240 R0
SYMATTR InstName C2
SYMATTR Value 1000p
SYMBOL res 2544 1952 R90
WINDOW 0 0 56 VBottom 2
WINDOW 3 32 56 VTop 2
SYMATTR InstName R1
SYMATTR Value 22K
SYMBOL ind 2288 1984 R270
WINDOW 0 32 56 VTop 2
WINDOW 3 5 56 VBottom 2
SYMATTR InstName L1
SYMATTR Value 10m
SYMBOL cap 2384 2000 R0
SYMATTR InstName C3
SYMATTR Value .01µ
TEXT 2216 2320 Left 2 !.tran 3m startup
TEXT 2208 2264 Left 2 !.options maxstep=.1u
