Version 4
SHEET 1 2872 2512
WIRE 2000 1952 1808 1952
WIRE 2384 1952 2080 1952
WIRE 2848 1952 2448 1952
WIRE 1808 2000 1808 1952
WIRE 1808 2128 1808 2080
WIRE 2848 2128 2848 1952
FLAG 2848 2128 0
FLAG 1808 2128 0
SYMBOL MISC\\XTAL 2448 1936 R90
WINDOW 0 -1 32 VBottom 2
WINDOW 3 34 32 VTop 2
WINDOW 39 60 32 VTop 2
SYMATTR InstName Y1
SYMATTR Value 25.0462p
SYMATTR SpiceLine Rser=6.2 Lser=6.7041m Cpar=344.3647p
SYMBOL VOLTAGE 1808 1984 R0
SYMATTR InstName V1
SYMATTR Value AC 4700
SYMBOL RES 2096 1936 R90
WINDOW 0 0 56 VBottom 2
WINDOW 3 32 56 VTop 2
SYMATTR InstName R1
SYMATTR Value 1G
TEXT 2048 2160 Left 2 !.ac oct 100000 340K 450K
TEXT 2416 1904 Bottom 2 ;CSBLA400KECE-B0
