Version 4
SHEET 1 1556 1328
WIRE 384 -160 80 -160
WIRE 384 -96 384 -160
WIRE 336 -48 272 -48
WIRE 272 -32 272 -48
WIRE 352 80 352 0
WIRE 464 80 352 80
WIRE 688 80 464 80
WIRE 352 96 352 80
WIRE 464 112 464 80
WIRE 352 176 352 160
WIRE 80 208 80 -160
WIRE 464 224 464 176
WIRE 688 224 688 80
WIRE 352 272 352 240
WIRE 352 272 336 272
WIRE 400 272 352 272
WIRE 336 304 336 272
WIRE 80 368 80 288
WIRE 336 400 336 368
WIRE 272 464 272 32
WIRE 464 464 464 320
WIRE 464 464 272 464
WIRE 464 496 464 464
WIRE 240 544 80 544
WIRE 320 544 240 544
WIRE 416 544 384 544
WIRE 80 592 80 544
WIRE 240 592 240 544
WIRE 432 640 432 592
WIRE 80 752 80 672
WIRE 240 752 240 656
WIRE 432 752 432 704
FLAG 336 400 0
FLAG 80 368 0
FLAG 240 752 0
FLAG 432 752 0
FLAG 688 288 0
FLAG 80 752 0
FLAG 688 80 out
SYMBOL r 384 544 R180
SYMATTR InstName R1
SYMATTR Value 1k
SYMBOL r 240 656 R270
SYMATTR InstName R2
SYMATTR Value 1Meg
SYMBOL pnp 416 272 M180
SYMATTR InstName Q1
SYMATTR Value 2N2907
SYMBOL voltage 80 192 R0
SYMATTR InstName V1
SYMATTR Value 280
SYMBOL LED 336 176 R0
SYMATTR InstName D1
SYMATTR Value NSCW100
SYMATTR Description Diode
SYMATTR Type diode
SYMBOL r 336 304 R90
SYMATTR InstName R3
SYMATTR Value 120k
SYMBOL r 464 112 R90
SYMATTR InstName R4
SYMATTR Value 100
SYMBOL LED 336 96 R0
SYMATTR InstName D2
SYMATTR Value NSCW100
SYMATTR Description Diode
SYMATTR Type diode
SYMBOL r 688 224 R90
SYMATTR InstName R5
SYMATTR Value 1Meg
SYMBOL r 272 -32 R90
SYMATTR InstName R6
SYMATTR Value 1k
SYMBOL r 432 704 R270
SYMATTR InstName R7
SYMATTR Value 800
SYMBOL voltage 80 576 R0
SYMATTR InstName V2
SYMATTR Value SINE(0 8 1k)
SYMATTR Value2 AC 1
SYMBOL 12AU7 384 -48 R0
SYMATTR InstName U1
SYMBOL 12AU7 464 544 R0
SYMATTR InstName U2
TEXT 968 96 Left 2 !.tran 0 1 0 100u
TEXT 968 64 Left 2 !.four 1k 9 v(out)
