Version 4
SHEET 1 932 680
WIRE 448 64 448 32
WIRE 704 64 448 64
WIRE 448 128 448 64
WIRE 704 192 704 64
WIRE 448 240 448 192
WIRE 560 240 448 240
WIRE 656 240 560 240
WIRE 448 288 448 240
WIRE 560 288 560 240
WIRE 224 336 16 336
WIRE 272 336 224 336
WIRE 400 336 336 336
WIRE 672 352 672 288
WIRE 768 352 672 352
WIRE 880 352 832 352
WIRE 16 384 16 336
WIRE 560 384 560 352
WIRE 672 384 672 352
WIRE 416 416 416 384
WIRE 480 416 416 416
WIRE 224 432 224 336
WIRE 416 432 416 416
WIRE 480 432 480 416
WIRE 16 528 16 464
WIRE 224 528 224 496
WIRE 416 528 416 496
WIRE 480 528 480 496
WIRE 480 528 416 528
WIRE 672 528 672 448
FLAG 416 528 0
FLAG 448 -48 0
FLAG 224 528 0
FLAG 16 528 0
FLAG 672 528 0
FLAG 880 352 out
SYMBOL misc/VacuumTubes/NormanKoren/12AX7 448 336 R0
SYMATTR InstName U1
SYMBOL r 336 336 M0
SYMATTR InstName R1
SYMATTR Value 470k
SYMBOL r 224 432 R90
SYMATTR InstName R2
SYMATTR Value 1Meg
SYMBOL r 416 432 R90
SYMATTR InstName R3
SYMATTR Value 820
SYMBOL r 448 128 R90
SYMATTR InstName R4
SYMATTR Value 100k
SYMBOL cap 464 432 R0
SYMATTR InstName C1
SYMATTR Value 25µ
SYMBOL voltage 448 48 R180
WINDOW 0 24 96 Left 2
WINDOW 3 24 16 Left 2
SYMATTR InstName V1
SYMATTR Value 440
SYMBOL voltage 16 368 R0
WINDOW 3 -198 -64 Left 2
SYMATTR InstName V2
SYMATTR Value PULSE(-15 15 0 0.005 0.005 0 0.01)
SYMBOL misc/VacuumTubes/NormanKoren/12AX7 704 240 R0
SYMATTR InstName U2
SYMBOL r 672 384 R90
SYMATTR InstName R5
SYMATTR Value 100k
SYMBOL cap 832 336 R90
WINDOW 0 0 32 VBottom 2
WINDOW 3 32 32 VTop 2
SYMATTR InstName C3
SYMATTR Value 1n
SYMBOL cap 576 352 R180
WINDOW 0 24 56 Left 2
WINDOW 3 24 8 Left 2
SYMATTR InstName C2
SYMATTR Value 1n
TEXT -320 0 Left 2 !.tran 0 1 0 100u
