Version 4
SHEET 1 7092 1188
WIRE 1168 -304 1040 -304
WIRE 1584 -304 1456 -304
WIRE 1040 -256 1040 -304
WIRE 1456 -256 1456 -304
WIRE 1040 -240 1040 -256
WIRE 1456 -224 1456 -256
WIRE 1120 -208 1088 -208
WIRE 1536 -208 1504 -208
WIRE 992 -192 880 -192
WIRE 1408 -192 1296 -192
WIRE 880 -160 880 -192
WIRE 1168 -160 1168 -304
WIRE 1296 -160 1296 -192
WIRE 1584 -160 1584 -304
WIRE 880 -32 880 -80
WIRE 1008 -32 880 -32
WIRE 1168 -32 1168 -80
WIRE 1168 -32 1008 -32
WIRE 1296 -32 1296 -80
WIRE 1424 -32 1296 -32
WIRE 1584 -32 1584 -80
WIRE 1584 -32 1424 -32
WIRE 1008 -16 1008 -32
WIRE 1424 -16 1424 -32
WIRE 1584 96 1584 64
WIRE 2048 96 2048 64
WIRE 736 416 544 416
WIRE 1232 416 1040 416
WIRE 1584 416 1392 416
WIRE 1920 416 1728 416
WIRE 544 480 544 416
WIRE 1040 480 1040 416
WIRE 1392 480 1392 416
WIRE 1728 480 1728 416
WIRE 736 496 736 416
WIRE 1232 496 1232 416
WIRE 1584 496 1584 416
WIRE 1920 496 1920 416
WIRE 544 640 544 560
WIRE 640 640 544 640
WIRE 736 640 736 560
WIRE 736 640 640 640
WIRE 1040 640 1040 560
WIRE 1136 640 1040 640
WIRE 1232 640 1232 560
WIRE 1232 640 1136 640
WIRE 1392 640 1392 560
WIRE 1488 640 1392 640
WIRE 1584 640 1584 560
WIRE 1584 640 1488 640
WIRE 1728 640 1728 560
WIRE 1824 640 1728 640
WIRE 1920 640 1920 560
WIRE 1920 640 1824 640
WIRE 640 656 640 640
WIRE 1136 656 1136 640
WIRE 1488 656 1488 640
WIRE 1824 656 1824 640
WIRE 736 704 544 704
WIRE 1232 704 1040 704
WIRE 1584 704 1392 704
WIRE 1920 704 1728 704
WIRE 544 768 544 704
WIRE 1040 768 1040 704
WIRE 1392 768 1392 704
WIRE 1728 768 1728 704
WIRE 736 784 736 704
WIRE 1232 784 1232 704
WIRE 1584 784 1584 704
WIRE 1920 784 1920 704
WIRE 544 928 544 848
WIRE 640 928 544 928
WIRE 736 928 736 848
WIRE 736 928 640 928
WIRE 1040 928 1040 848
WIRE 1136 928 1040 928
WIRE 1232 928 1232 848
WIRE 1232 928 1136 928
WIRE 1392 928 1392 848
WIRE 1488 928 1392 928
WIRE 1584 928 1584 848
WIRE 1584 928 1488 928
WIRE 1728 928 1728 848
WIRE 1824 928 1728 928
WIRE 1920 928 1920 848
WIRE 1920 928 1824 928
WIRE 640 944 640 928
WIRE 1136 944 1136 928
WIRE 1488 944 1488 928
WIRE 1824 944 1824 928
FLAG 1008 -144 0
FLAG 880 -192 in
FLAG 1168 -304 anode
FLAG 1008 -16 0
FLAG 1424 -144 0
FLAG 1424 -16 0
FLAG 1824 656 0
FLAG 2048 64 vg2
FLAG 2048 176 0
FLAG 1920 416 loadline
FLAG 1120 -208 vg2
FLAG 1584 64 -vg2
FLAG 1584 176 0
FLAG 1536 -208 -vg2
FLAG 768 208 0
FLAG 768 96 0
FLAG 1136 656 0
FLAG 1488 656 0
FLAG 1136 944 0
FLAG 1488 944 0
FLAG 640 656 0
FLAG 640 944 0
FLAG 1824 944 0
SYMBOL voltage 880 -176 R0
SYMATTR InstName V1
SYMATTR Value 0
SYMBOL voltage 1168 -176 R0
SYMATTR InstName V2
SYMATTR Value 0
SYMBOL voltage 1296 -176 R0
WINDOW 3 24 38 Left 2
SYMATTR Value V={vgmax}+{vgmin}-v(in)
SYMATTR InstName B1
SYMATTR Prefix B
SYMBOL voltage 1584 -176 R0
SYMATTR InstName B2
SYMATTR Value V={vbmax}-V(anode)
SYMATTR Prefix B
SYMBOL voltage 1728 464 R0
WINDOW 3 24 38 Left 2
SYMATTR Value V=-({vbmax}/2-v(anode))
SYMATTR InstName B3
SYMATTR Prefix B
SYMBOL r 1920 496 R90
SYMATTR InstName Rl
SYMATTR Value {8k}/2
SYMBOL bv 2048 80 R0
SYMATTR InstName B4
SYMATTR Value V={vbmax}/2*0.43+V(anode)*0.57
SYMBOL NormanKoren/6L6GC 1456 -208 R0
SYMATTR InstName U2
SYMBOL bv 1584 80 R0
SYMATTR InstName B5
SYMATTR Value V={vbmax}/2*0.43+V(n001)*0.57
SYMBOL NormanKoren/6L6GC 1040 -208 R0
SYMATTR InstName U1
SYMBOL bi 768 128 R0
WINDOW 3 -218 112 Left 2
SYMATTR Value I=-30 / (100 + uramp({vbmax}-V(anode) - 100))
SYMATTR InstName B7
SYMBOL bi 768 96 R180
WINDOW 0 24 80 Left 2
WINDOW 3 -191 99 Left 2
SYMATTR InstName B6
SYMATTR Value I=30 / (100 + uramp(v(anode) - 100))
SYMBOL voltage 1040 464 R0
WINDOW 3 24 38 Left 2
SYMATTR Value V=-({vbmax}/2-v(anode))
SYMATTR InstName B8
SYMATTR Prefix B
SYMBOL r 1232 496 R90
SYMATTR InstName Rl1
SYMATTR Value {6k}/2
SYMBOL voltage 1392 464 R0
WINDOW 3 24 38 Left 2
SYMATTR Value V=-({vbmax}/2-v(anode))
SYMATTR InstName B9
SYMATTR Prefix B
SYMBOL r 1584 496 R90
SYMATTR InstName Rl2
SYMATTR Value {7k}/2
SYMBOL voltage 1040 752 R0
WINDOW 3 24 38 Left 2
SYMATTR Value V=-({vbmax}/2-v(anode))
SYMATTR InstName B10
SYMATTR Prefix B
SYMBOL r 1232 784 R90
SYMATTR InstName Rl3
SYMATTR Value {6k}/4
SYMBOL voltage 1392 752 R0
WINDOW 3 24 38 Left 2
SYMATTR Value V=-({vbmax}/2-v(anode))
SYMATTR InstName B11
SYMATTR Prefix B
SYMBOL r 1584 784 R90
SYMATTR InstName Rl4
SYMATTR Value {7k}/4
SYMBOL voltage 544 464 R0
WINDOW 3 24 38 Left 2
SYMATTR Value V=-({vbmax}/2-v(anode))
SYMATTR InstName B12
SYMATTR Prefix B
SYMBOL r 736 496 R90
SYMATTR InstName Rl5
SYMATTR Value 2887
SYMBOL voltage 544 752 R0
WINDOW 3 24 38 Left 2
SYMATTR Value V=-({vbmax}/2-v(anode))
SYMATTR InstName B13
SYMATTR Prefix B
SYMBOL r 736 784 R90
SYMATTR InstName Rl6
SYMATTR Value 1443
SYMBOL voltage 1728 752 R0
WINDOW 3 24 38 Left 2
SYMATTR Value V=-({vbmax}/2-v(anode))
SYMATTR InstName B14
SYMATTR Prefix B
SYMBOL r 1920 784 R90
SYMATTR InstName Rl7
SYMATTR Value {8k}/4
TEXT 808 -416 Left 2 !.param vgmin -80\n.param vgmax 15\n.param vbmax 860\n.dc V2 0 {vbmax} 1 V1 {vgmax} {vgmin} -5
TEXT 1344 288 Left 2 ;V(%IN+, %IN-)*1+V(1P)*0\n(UL mode is V(%IN+, %IN-)*0.43+V(1P)*0.57)\n(Triode mode is V(%IN+, %IN-)*0+V(1P)*1)
TEXT 1344 256 Left 2 ;Agora tem que dar jeito de achar a tensao quiescente da placa
