Version 4
SHEET 1 1332 816
WIRE 160 80 160 16
WIRE 160 240 160 144
WIRE 208 240 160 240
WIRE 368 272 352 272
WIRE 448 272 432 272
WIRE 528 272 512 272
WIRE 544 272 528 272
WIRE 640 272 608 272
WIRE 752 272 704 272
WIRE 160 288 160 240
WIRE 352 304 352 272
WIRE 752 304 752 272
WIRE -176 336 -352 336
WIRE -32 336 -176 336
WIRE 112 336 32 336
WIRE 528 368 528 272
WIRE -352 400 -352 336
WIRE -176 400 -176 336
WIRE 128 432 128 384
WIRE 192 432 128 432
WIRE 128 448 128 432
WIRE 272 448 272 240
WIRE 320 448 272 448
WIRE 352 448 352 368
WIRE 352 448 320 448
WIRE 192 464 192 432
WIRE 528 464 528 432
WIRE 832 464 528 464
WIRE -352 528 -352 480
WIRE -176 528 -176 464
WIRE 128 576 128 512
WIRE 192 576 192 528
WIRE 320 624 320 448
WIRE 368 624 320 624
WIRE 448 624 432 624
WIRE 528 624 528 528
WIRE 528 624 512 624
WIRE 544 624 528 624
WIRE 624 624 608 624
WIRE 720 624 688 624
WIRE 752 624 752 368
WIRE 752 624 720 624
WIRE 320 672 320 624
WIRE 720 672 720 624
WIRE 432 720 432 624
WIRE 496 720 432 720
WIRE 624 720 624 624
WIRE 624 720 560 720
WIRE 320 800 320 736
WIRE 720 800 720 736
FLAG -352 528 0
FLAG 128 576 0
FLAG -176 528 0
FLAG 192 576 0
FLAG 160 -64 0
FLAG 720 800 0
FLAG 320 800 0
SYMBOL misc/VacuumTubes/NormanKoren/12AX7 160 336 R0
SYMATTR InstName U1
SYMBOL voltage -352 384 R0
SYMATTR InstName V1
SYMATTR Value AC 1
SYMBOL r 128 448 R90
SYMATTR InstName R1
SYMATTR Value 1500
SYMBOL r -176 400 R90
SYMATTR InstName R2
SYMATTR Value 1Meg
SYMBOL r -32 336 R0
SYMATTR InstName R3
SYMATTR Value 100
SYMBOL voltage 160 32 R180
WINDOW 0 24 96 Left 2
WINDOW 3 24 16 Left 2
SYMATTR InstName V2
SYMATTR Value 300
SYMBOL r 160 80 R90
SYMATTR InstName R4
SYMATTR Value 100k
SYMBOL cap 176 464 R0
SYMATTR InstName C4
SYMATTR Value 10µ
SYMBOL r 752 304 R90
SYMATTR InstName R6
SYMATTR Value 24k
SYMBOL r 512 272 R180
SYMATTR InstName R7
SYMATTR Value 0
SYMBOL r 608 272 R180
SYMATTR InstName R8
SYMATTR Value 250k
SYMBOL r 512 624 R180
SYMATTR InstName R9
SYMATTR Value 250k
SYMBOL r 608 624 R180
SYMATTR InstName R10
SYMATTR Value 0
SYMBOL r 528 368 R90
SYMATTR InstName R11
SYMATTR Value 220k
SYMBOL cap 704 672 R0
SYMATTR InstName C2
SYMATTR Value 2n
SYMBOL cap 704 256 R90
WINDOW 0 0 32 VBottom 2
WINDOW 3 32 32 VTop 2
SYMATTR InstName C3
SYMATTR Value 200p
SYMBOL cap 432 256 R90
WINDOW 0 0 32 VBottom 2
WINDOW 3 32 32 VTop 2
SYMATTR InstName C5
SYMATTR Value 200p
SYMBOL r 368 624 R0
SYMATTR InstName R14
SYMATTR Value 56k
SYMBOL r 624 624 R0
SYMATTR InstName R15
SYMATTR Value 56k
SYMBOL r 320 672 R90
SYMATTR InstName R16
SYMATTR Value 500k
SYMBOL cap 560 704 R90
WINDOW 0 0 32 VBottom 2
WINDOW 3 32 32 VTop 2
SYMATTR InstName C1
SYMATTR Value 2n
SYMBOL r 528 464 R90
SYMATTR InstName R5
SYMATTR Value 1Meg
SYMBOL r 352 304 R90
SYMATTR InstName R17
SYMATTR Value 24k
SYMBOL cap 272 224 R90
WINDOW 0 0 32 VBottom 2
WINDOW 3 32 32 VTop 2
SYMATTR InstName C6
SYMATTR Value 10n
TEXT -224 -48 Left 2 !.ac dec 100 1 100k
