Version 4
SHEET 1 1124 680
WIRE 704 80 704 32
WIRE 864 80 864 32
WIRE 1024 80 1024 32
WIRE 384 256 272 256
WIRE 480 256 448 256
WIRE 592 272 544 272
WIRE 704 272 704 160
WIRE 704 272 592 272
WIRE 752 272 704 272
WIRE 864 272 864 160
WIRE 864 272 816 272
WIRE 912 272 864 272
WIRE 1024 272 1024 160
WIRE 1024 272 976 272
WIRE 224 288 -16 288
WIRE 704 320 704 272
WIRE 864 320 864 272
WIRE 1024 320 1024 272
WIRE 336 336 272 336
WIRE 224 368 -16 368
WIRE 224 384 224 368
WIRE 384 416 272 416
WIRE 480 416 448 416
WIRE 592 432 592 272
WIRE 592 432 544 432
WIRE 704 432 704 384
WIRE 864 432 864 384
WIRE 1024 432 1024 384
FLAG 336 336 0
FLAG 224 384 0
FLAG 704 432 0
FLAG 864 432 0
FLAG 1024 432 0
FLAG 704 32 0
FLAG 864 32 0
FLAG 1024 32 0
SYMBOL ind2 208 384 M180
WINDOW 0 -62 66 Left 2
WINDOW 3 -38 37 Left 2
SYMATTR InstName Lprim
SYMATTR Value 1µ
SYMATTR Type ind
SYMATTR SpiceLine Rser=0.0001
SYMBOL ind2 288 240 M0
WINDOW 0 -62 38 Left 2
WINDOW 3 -60 64 Left 2
SYMATTR InstName Lsec1
SYMATTR Value 7µ
SYMATTR Type ind
SYMBOL ind2 288 320 M0
WINDOW 0 -67 48 Left 2
WINDOW 3 -62 73 Left 2
SYMATTR InstName Lsec2
SYMATTR Value 7µ
SYMATTR Type ind
SYMBOL voltage -16 272 R0
WINDOW 0 -99 36 Left 2
WINDOW 3 -205 64 Left 2
SYMATTR InstName Vrede
SYMATTR Value SINE(0 180 60)
SYMATTR Value2 AC 180
SYMBOL misc/VacuumTubes/rectifiers/5Y3GT 512 416 R270
WINDOW 0 -78 -7 VRight 2
WINDOW 3 -48 -34 VRight 2
SYMATTR InstName U1
SYMBOL misc/VacuumTubes/rectifiers/5Y3GT 512 256 R270
WINDOW 0 -74 -10 VRight 2
WINDOW 3 -48 -31 VRight 2
SYMATTR InstName U2
SYMBOL cap 688 320 R0
SYMATTR InstName Cretf
SYMATTR Value 40µ
SYMBOL cap 848 320 R0
SYMATTR InstName C1fonte
SYMATTR Value 33µ
SYMBOL cap 1008 320 R0
SYMATTR InstName C2fonte
SYMATTR Value 20µ
SYMBOL r 752 272 R0
WINDOW 0 67 -28 Right 2
WINDOW 3 55 26 Right 2
SYMATTR InstName R1fonte
SYMATTR Value 1k
SYMBOL r 912 272 R0
WINDOW 0 67 -30 Right 2
WINDOW 3 52 26 Right 2
SYMATTR InstName R2fonte
SYMATTR Value 18K
SYMBOL current 704 160 R180
WINDOW 0 24 80 Left 2
WINDOW 3 24 0 Left 2
SYMATTR InstName I1
SYMATTR Value 90m
SYMBOL current 864 160 R180
WINDOW 0 24 80 Left 2
WINDOW 3 24 0 Left 2
SYMATTR InstName I2
SYMATTR Value 20m
SYMBOL current 1024 160 R180
WINDOW 0 24 80 Left 2
WINDOW 3 24 0 Left 2
SYMATTR InstName I3
SYMATTR Value 5m
SYMBOL r 384 256 R0
SYMATTR InstName R1placa
SYMATTR Value 220
SYMBOL r 384 416 R0
SYMATTR InstName R2placa
SYMATTR Value 220
TEXT 128 232 Left 2 !K Lprim Lsec1 Lsec2 1
TEXT 224 72 Left 2 !.tran 1
TEXT 152 440 Left 2 ;Hammond_291DX
