Version 4
SHEET 1 3164 880
WIRE 1168 80 1168 32
WIRE 1392 80 1280 80
WIRE 1392 144 1392 80
WIRE 112 176 112 128
WIRE 240 176 112 176
WIRE 1168 176 1168 160
WIRE 1168 176 1056 176
WIRE 736 192 736 64
WIRE 112 224 112 176
WIRE 240 224 240 176
WIRE 256 224 240 224
WIRE 352 224 320 224
WIRE 512 224 480 224
WIRE 592 224 576 224
WIRE 1280 256 1280 160
WIRE -256 272 -496 272
WIRE -192 272 -256 272
WIRE -64 272 -128 272
WIRE 64 272 -64 272
WIRE -496 288 -496 272
WIRE 416 288 416 224
WIRE 560 288 416 288
WIRE 592 288 592 224
WIRE 736 288 736 256
WIRE 736 288 592 288
WIRE 800 288 736 288
WIRE 944 288 864 288
WIRE 416 320 416 288
WIRE 736 320 736 288
WIRE 944 336 944 288
WIRE -256 352 -256 272
WIRE -64 352 -64 272
WIRE 1056 352 1056 176
WIRE 80 368 80 320
WIRE 144 368 80 368
WIRE 560 368 560 288
WIRE 688 368 560 368
WIRE 80 400 80 368
WIRE 1008 400 944 400
WIRE 240 416 240 224
WIRE 592 416 592 288
WIRE 416 432 416 384
WIRE 416 432 320 432
WIRE 416 448 416 432
WIRE 704 464 704 416
WIRE 752 464 704 464
WIRE 144 496 144 368
WIRE 1024 496 1024 448
WIRE 1072 496 1024 496
WIRE 752 512 752 464
WIRE 1024 512 1024 496
WIRE 1072 512 1072 496
WIRE -256 528 -256 416
WIRE -64 528 -64 416
WIRE 240 560 240 480
WIRE 352 560 240 560
WIRE 416 560 416 512
WIRE 592 560 592 480
WIRE 592 560 480 560
WIRE 144 576 144 560
WIRE 944 592 944 464
WIRE 1024 592 1024 576
WIRE 1072 592 1072 576
WIRE 240 608 240 560
WIRE 320 608 320 432
WIRE 592 608 592 560
WIRE 752 608 752 576
FLAG 112 -16 0
FLAG -496 368 0
FLAG 704 528 0
FLAG -256 528 0
FLAG 736 -16 0
FLAG 1392 208 0
FLAG 1168 -48 0
FLAG 1392 80 out
FLAG 1072 592 0
FLAG 1024 592 0
FLAG -496 272 in
FLAG 80 464 0
FLAG -64 528 0
FLAG 320 672 0
FLAG 240 672 0
FLAG 592 672 0
FLAG 144 576 0
FLAG 752 608 0
FLAG 1280 256 0
FLAG 944 592 0
SYMBOL r -256 352 R90
SYMATTR InstName R1
SYMATTR Value 1Meg
SYMBOL r 112 64 R90
SYMATTR InstName R3
SYMATTR Value 100k
SYMBOL r -128 272 R180
SYMATTR InstName R4
SYMATTR Value 33k
SYMBOL voltage 112 80 R180
WINDOW 0 24 96 Left 2
WINDOW 3 24 16 Left 2
SYMATTR InstName V1
SYMATTR Value 200
SYMBOL voltage -496 272 R0
WINDOW 3 24 38 Left 2
SYMATTR Value SINE(0 50m 1k)
SYMATTR InstName V2
SYMATTR Value2 AC 1
SYMBOL r 1024 512 R90
SYMATTR InstName R6
SYMATTR Value 470
SYMBOL r 80 400 R90
SYMATTR InstName R2
SYMATTR Value 1500
SYMBOL r 736 192 R90
SYMATTR InstName R7
SYMATTR Value 100k
SYMBOL voltage 736 80 R180
WINDOW 0 24 96 Left 2
WINDOW 3 24 16 Left 2
SYMATTR InstName V3
SYMATTR Value 250
SYMBOL cap 864 272 R90
WINDOW 0 0 32 VBottom 2
WINDOW 3 32 32 VTop 2
SYMATTR InstName C7
SYMATTR Value 50n
SYMBOL r 704 464 R90
SYMATTR InstName R13
SYMATTR Value 1500
SYMBOL r 944 336 R90
SYMATTR InstName R20
SYMATTR Value 0
SYMBOL r 1392 144 R90
SYMATTR InstName R22
SYMATTR Value 10k
SYMBOL voltage 1168 48 R180
WINDOW 0 24 96 Left 2
WINDOW 3 24 16 Left 2
SYMATTR InstName V5
SYMATTR Value 300
SYMBOL misc/VacuumTubes/NormanKoren/12AX7 112 272 R0
SYMATTR InstName U3
SYMBOL misc/VacuumTubes/NormanKoren/12AU7 1056 400 R0
SYMATTR InstName U4
SYMBOL misc/VacuumTubes/NormanKoren/12AX7 736 368 R0
SYMATTR InstName U1
SYMBOL cap 1056 512 R0
SYMATTR InstName C3
SYMATTR Value 47µ
SYMBOL cap -80 352 R0
SYMATTR InstName C4
SYMATTR Value 0
SYMBOL cap 320 208 R90
WINDOW 0 0 32 VBottom 2
WINDOW 3 32 32 VTop 2
SYMATTR InstName C5
SYMATTR Value 200p
SYMBOL cap 576 208 R90
WINDOW 0 0 32 VBottom 2
WINDOW 3 32 32 VTop 2
SYMATTR InstName C6
SYMATTR Value 200p
SYMBOL r 352 224 R0
SYMATTR InstName R5
SYMATTR Value 200k
SYMBOL r 480 224 R180
SYMATTR InstName R9
SYMATTR Value 300k
SYMBOL r 416 384 R270
SYMATTR InstName R10
SYMATTR Value 1Meg
SYMBOL cap 432 512 R180
WINDOW 0 24 56 Left 2
WINDOW 3 24 8 Left 2
SYMATTR InstName C10
SYMATTR Value 0.01µ
SYMBOL r 320 672 R270
WINDOW 0 4 24 VRight 2
WINDOW 3 -21 19 VRight 2
SYMATTR InstName R12
SYMATTR Value 2Meg
SYMBOL r 240 416 R90
SYMATTR InstName R14
SYMATTR Value 100k
SYMBOL r 592 480 R270
SYMATTR InstName R15
SYMATTR Value 100k
SYMBOL cap 608 672 R180
WINDOW 0 24 56 Left 2
WINDOW 3 24 8 Left 2
SYMATTR InstName C11
SYMATTR Value 2n
SYMBOL cap 256 672 R180
WINDOW 0 24 56 Left 2
WINDOW 3 24 8 Left 2
SYMATTR InstName C12
SYMATTR Value 2n
SYMBOL r 352 560 R0
SYMATTR InstName R17
SYMATTR Value 500k
SYMBOL r 416 560 R0
SYMATTR InstName R18
SYMATTR Value 500k
SYMBOL cap 128 496 R0
SYMATTR InstName C8
SYMATTR Value 10µ
SYMBOL cap 736 512 R0
SYMATTR InstName C13
SYMATTR Value 5µ
SYMBOL ind2 1152 176 M180
WINDOW 0 -37 85 Left 2
WINDOW 3 -52 38 Left 2
SYMATTR InstName L1
SYMATTR Value 40
SYMATTR Type ind
SYMATTR SpiceLine Rser=640
SYMBOL ind2 1296 176 R180
WINDOW 0 36 80 Left 2
WINDOW 3 36 40 Left 2
SYMATTR InstName L2
SYMATTR Value 1.6
SYMATTR Type ind
SYMATTR SpiceLine Rser=50
SYMBOL r 944 400 R90
SYMATTR InstName R8
SYMATTR Value 1Meg
TEXT 168 -384 Left 2 ;.tran 0 35 2
TEXT 168 -424 Left 2 ;.four 1k out
TEXT -664 -272 Left 2 ;.wave sample9(novo_G=4,trafo,cnfb,menos_ag).wav 16 44100 out
TEXT -664 -336 Left 2 ;wavefile=teste_atenuado.wav\n*escrever na fonte
TEXT 184 -312 Left 2 ;.tran 0 1.02 1 10u
TEXT 192 -264 Left 2 !.ac oct 10 10 20meg
TEXT -24 -128 Left 2 ;O sample6 é este mesmo circuito sem NFB
TEXT 1320 24 Left 2 !k1 L1 L2 0.9998
TEXT 544 -144 Left 2 !.four 1k 9 v(out)
TEXT 208 -208 Left 2 ;.tran 0 20.1m 0.9m 100u
TEXT -360 -184 Left 2 ;.ac dec 100 10 3000k
