Version 4
SHEET 1 1844 1380
WIRE -288 480 -288 432
WIRE -160 480 -288 480
WIRE -112 480 -160 480
WIRE 0 480 -48 480
WIRE 704 496 704 416
WIRE 704 496 384 496
WIRE -288 528 -288 480
WIRE 384 560 384 496
WIRE -656 576 -896 576
WIRE -592 576 -656 576
WIRE -464 576 -528 576
WIRE -336 576 -464 576
WIRE -896 592 -896 576
WIRE -160 608 -160 480
WIRE -112 608 -160 608
WIRE 0 608 0 480
WIRE 0 608 -48 608
WIRE 704 608 704 496
WIRE -160 640 -160 608
WIRE -656 656 -656 576
WIRE -464 656 -464 576
WIRE 384 656 384 624
WIRE 464 656 384 656
WIRE 576 656 528 656
WIRE 656 656 640 656
WIRE 144 672 0 672
WIRE 384 688 384 656
WIRE -320 704 -320 624
WIRE 224 736 144 736
WIRE 336 736 288 736
WIRE -160 752 -160 704
WIRE -112 752 -160 752
WIRE 0 752 0 736
WIRE 0 752 -48 752
WIRE 80 752 0 752
WIRE 672 768 672 704
WIRE -320 800 -320 768
WIRE 80 816 80 752
WIRE 80 816 0 816
WIRE -656 832 -656 720
WIRE -464 832 -464 720
WIRE 352 832 352 784
WIRE 400 832 352 832
WIRE 672 848 672 832
WIRE 896 848 672 848
WIRE 1168 848 960 848
WIRE 1168 864 1168 848
WIRE 400 880 400 832
WIRE 0 896 0 880
WIRE 1168 928 1168 864
WIRE -160 960 -160 752
WIRE -112 960 -160 960
WIRE 0 960 -48 960
WIRE 400 976 400 944
FLAG -288 288 0
FLAG -896 672 0
FLAG 352 896 0
FLAG -656 832 0
FLAG 704 336 0
FLAG 1168 992 0
FLAG 1168 864 out
FLAG -896 576 in
FLAG -464 832 0
FLAG 400 976 0
FLAG 0 1024 0
FLAG 144 800 0
FLAG 672 912 0
FLAG -320 800 0
SYMBOL r -656 656 R90
SYMATTR InstName R1
SYMATTR Value 1Meg
SYMBOL r -288 368 R90
SYMATTR InstName R2
SYMATTR Value 100k
SYMBOL r -528 576 R180
SYMATTR InstName R3
SYMATTR Value 33k
SYMBOL voltage -288 384 R180
WINDOW 0 24 96 Left 2
WINDOW 3 24 16 Left 2
SYMATTR InstName V1
SYMATTR Value 250v
SYMBOL voltage -896 576 R0
WINDOW 3 24 38 Left 2
SYMATTR Value SINE(0 50m 1k)
SYMATTR InstName V2
SYMATTR Value2 AC 1
SYMBOL r 672 768 R90
SYMATTR InstName R4
SYMATTR Value 0
SYMBOL r -320 704 R90
SYMATTR InstName R5
SYMATTR Value 1500
SYMBOL r 384 560 R90
SYMATTR InstName R6
SYMATTR Value 100k
SYMBOL voltage 704 432 R180
WINDOW 0 24 96 Left 2
WINDOW 3 24 16 Left 2
SYMATTR InstName V3
SYMATTR Value 300v
SYMBOL r 352 832 R90
SYMATTR InstName R8
SYMATTR Value 820
SYMBOL r 1168 928 R90
SYMATTR InstName R12
SYMATTR Value 10k
SYMBOL misc/VacuumTubes/NormanKoren/12AX7 -288 576 R0
SYMATTR InstName U1
SYMBOL misc/VacuumTubes/NormanKoren/12AU7 704 656 R0
SYMATTR InstName U2
SYMBOL misc/VacuumTubes/NormanKoren/12AX7 384 736 R0
SYMATTR InstName U3
SYMBOL cap -480 656 R0
SYMATTR InstName C4
SYMATTR Value 47p
SYMBOL cap 384 880 R0
SYMATTR InstName C6
SYMATTR Value 25µ
SYMBOL cap -48 464 R90
WINDOW 0 0 32 VBottom 2
WINDOW 3 32 32 VTop 2
SYMATTR InstName C7
SYMATTR Value 220p
SYMBOL cap -48 592 R90
WINDOW 0 6 71 VBottom 2
WINDOW 3 21 69 VTop 2
SYMATTR InstName C8
SYMATTR Value 470p
SYMBOL cap -48 736 R90
WINDOW 0 14 70 VBottom 2
WINDOW 3 22 71 VTop 2
SYMATTR InstName C9
SYMATTR Value 22n
SYMBOL cap -48 944 R90
WINDOW 0 4 63 VBottom 2
WINDOW 3 20 64 VTop 2
SYMATTR InstName C10
SYMATTR Value 22n
SYMBOL r 0 608 R90
SYMATTR InstName R13
SYMATTR Value 0
SYMBOL r 0 672 R90
SYMATTR InstName R14
SYMATTR Value 250k
SYMBOL r 0 752 R90
SYMATTR InstName R15
SYMATTR Value 0
SYMBOL r 0 816 R90
SYMATTR InstName R16
SYMATTR Value 1Meg
SYMBOL r 0 896 R90
SYMATTR InstName R17
SYMATTR Value 0
SYMBOL r 0 960 R90
SYMATTR InstName R18
SYMATTR Value 250k
SYMBOL r -160 640 R90
SYMATTR InstName R19
SYMATTR Value 100k
SYMBOL r 144 672 R90
SYMATTR InstName R20
SYMATTR Value 0
SYMBOL r 144 736 R90
SYMATTR InstName R21
SYMATTR Value 1Meg
SYMBOL cap 960 832 R90
WINDOW 0 0 32 VBottom 2
WINDOW 3 32 32 VTop 2
SYMATTR InstName C2
SYMATTR Value 2µ
SYMBOL r 672 848 R90
SYMATTR InstName R10
SYMATTR Value 18k
SYMBOL r 640 656 R180
SYMATTR InstName R11
SYMATTR Value 0
SYMBOL r 224 736 R0
SYMATTR InstName R7
SYMATTR Value 1k
SYMBOL cap 528 640 R90
WINDOW 0 0 32 VBottom 2
WINDOW 3 32 32 VTop 2
SYMATTR InstName C1
SYMATTR Value 10n
TEXT -96 288 Left 2 ;.ac dec 10 1 20meg
TEXT 256 408 Left 2 !.four 1k 9 v(out)
TEXT -80 344 Left 2 !.tran 0 310m 290m 100u
TEXT 696 784 Left 2 ;Filtro chaveado de graves com caps na saída
TEXT -64 1088 Left 2 ;Filtro de chaveado de agudos via efeito Miller no Rg
TEXT -616 888 Left 2 ;Se quiser sujar poe cap bypassando Rk1
