Version 4
SHEET 1 1668 984
WIRE 1328 112 1328 64
WIRE 1360 112 1328 112
WIRE 1440 112 1424 112
WIRE 1488 112 1440 112
WIRE 1552 112 1488 112
WIRE 1552 176 1552 112
WIRE 1328 208 1328 192
WIRE 1328 208 1216 208
WIRE 1440 288 1440 192
WIRE -144 320 -144 272
WIRE -16 320 -144 320
WIRE 80 320 48 320
WIRE 112 320 80 320
WIRE 224 320 176 320
WIRE 800 320 640 320
WIRE 480 336 480 208
WIRE -144 368 -144 320
WIRE 1216 384 1216 208
WIRE -512 416 -752 416
WIRE -448 416 -512 416
WIRE -320 416 -384 416
WIRE -192 416 -320 416
WIRE -752 432 -752 416
WIRE 80 432 80 320
WIRE 224 432 224 320
WIRE 480 432 480 400
WIRE 544 432 480 432
WIRE 640 432 640 320
WIRE 640 432 608 432
WIRE 720 432 640 432
WIRE 800 432 800 320
WIRE 800 432 784 432
WIRE 816 432 800 432
WIRE 912 432 880 432
WIRE 960 432 912 432
WIRE 1072 432 1024 432
WIRE 1168 432 1072 432
WIRE 480 464 480 432
WIRE 1072 480 1072 432
WIRE -512 496 -512 416
WIRE -320 496 -320 416
WIRE 304 496 224 496
WIRE -176 512 -176 464
WIRE -112 512 -176 512
WIRE 304 512 304 496
WIRE 352 512 304 512
WIRE 432 512 352 512
WIRE 640 512 640 432
WIRE 912 528 912 432
WIRE 1184 528 1184 480
WIRE 1232 528 1184 528
WIRE -176 544 -176 512
WIRE 1184 544 1184 528
WIRE 1232 544 1232 528
WIRE -112 560 -112 512
WIRE 0 560 -112 560
WIRE 448 608 448 560
WIRE 496 608 448 608
WIRE 1072 624 1072 544
WIRE 1184 624 1184 608
WIRE 1232 624 1232 608
WIRE 496 656 496 608
WIRE -512 672 -512 560
WIRE -320 672 -320 560
WIRE 640 672 640 576
WIRE 912 672 912 592
WIRE 496 752 496 720
WIRE 0 912 0 560
WIRE 1488 976 1488 112
WIRE 1488 976 0 976
FLAG -144 128 0
FLAG -752 512 0
FLAG 448 672 0
FLAG -512 672 0
FLAG 480 128 0
FLAG 640 672 0
FLAG 912 672 0
FLAG 1552 240 0
FLAG 1328 -16 0
FLAG 1552 112 out
FLAG 1072 624 0
FLAG 1232 624 0
FLAG 1184 624 0
FLAG -752 416 in
FLAG 1440 288 0
FLAG -176 608 0
FLAG -320 672 0
FLAG 496 752 0
FLAG 80 496 0
FLAG 224 560 0
FLAG 352 576 0
SYMBOL r -512 496 R90
SYMATTR InstName R1
SYMATTR Value 1Meg
SYMBOL r -144 208 R90
SYMATTR InstName R2
SYMATTR Value 100k
SYMBOL r -384 416 R180
SYMATTR InstName R3
SYMATTR Value 33k
SYMBOL voltage -144 224 R180
WINDOW 0 24 96 Left 2
WINDOW 3 24 16 Left 2
SYMATTR InstName V1
SYMATTR Value 200
SYMBOL voltage -752 416 R0
WINDOW 3 24 38 Left 2
SYMATTR Value SINE(0 50m 1k)
SYMATTR InstName V2
SYMATTR Value2 AC 1
SYMBOL r 1184 544 R90
SYMATTR InstName R4
SYMATTR Value 470
SYMBOL r -176 544 R90
SYMATTR InstName R5
SYMATTR Value 1500
SYMBOL r 480 336 R90
SYMATTR InstName R6
SYMATTR Value 100k
SYMBOL voltage 480 224 R180
WINDOW 0 24 96 Left 2
WINDOW 3 24 16 Left 2
SYMATTR InstName V3
SYMATTR Value 250
SYMBOL cap 608 416 R90
WINDOW 0 0 32 VBottom 2
WINDOW 3 32 32 VTop 2
SYMATTR InstName C1
SYMATTR Value 5n
SYMBOL r 640 512 R90
SYMATTR InstName R7
SYMATTR Value 500k
SYMBOL r 448 608 R90
SYMATTR InstName R8
SYMATTR Value 1500
SYMBOL r 720 432 R0
SYMATTR InstName R9
SYMATTR Value 47k
SYMBOL r 816 432 R0
SYMATTR InstName R10
SYMATTR Value 47k
SYMBOL cap 896 528 R0
SYMATTR InstName C2
SYMATTR Value 500p
SYMBOL r 1072 480 R90
SYMATTR InstName R11
SYMATTR Value 1Meg
SYMBOL ind2 1312 208 M180
WINDOW 0 -37 85 Left 2
WINDOW 3 -52 38 Left 2
SYMATTR InstName L1
SYMATTR Value 107
SYMATTR Type ind
SYMATTR SpiceLine Rser=337 Cpar=100p
SYMBOL ind2 1456 208 R180
WINDOW 0 36 80 Left 2
WINDOW 3 36 40 Left 2
SYMATTR InstName L2
SYMATTR Value 47.6m
SYMATTR Type ind
SYMATTR SpiceLine Rser=792m Cpar=100p
SYMBOL r 1552 176 R90
SYMATTR InstName R12
SYMATTR Value 10k
SYMBOL voltage 1328 80 R180
WINDOW 0 24 96 Left 2
WINDOW 3 24 16 Left 2
SYMATTR InstName V4
SYMATTR Value 300
SYMBOL misc/VacuumTubes/NormanKoren/12AX7 -144 416 R0
SYMATTR InstName U1
SYMBOL misc/VacuumTubes/NormanKoren/12AU7 1216 432 R0
SYMATTR InstName U2
SYMBOL misc/VacuumTubes/NormanKoren/12AX7 480 512 R0
SYMATTR InstName U3
SYMBOL cap 1424 96 R90
WINDOW 0 0 32 VBottom 2
WINDOW 3 32 32 VTop 2
SYMATTR InstName C3
SYMATTR Value 50p
SYMBOL cap 1216 544 R0
SYMATTR InstName C4
SYMATTR Value 47µ
SYMBOL cap -336 496 R0
SYMATTR InstName C5
SYMATTR Value 0
SYMBOL cap 1024 416 R90
WINDOW 0 0 32 VBottom 2
WINDOW 3 32 32 VTop 2
SYMATTR InstName C11
SYMATTR Value 5n
SYMBOL cap 480 656 R0
SYMATTR InstName C13
SYMATTR Value 5µ
SYMBOL r 80 432 R90
SYMATTR InstName R13
SYMATTR Value 100k
SYMBOL r 224 432 R90
SYMATTR InstName R14
SYMATTR Value 0
SYMBOL cap 48 304 R90
WINDOW 0 0 32 VBottom 2
WINDOW 3 32 32 VTop 2
SYMATTR InstName C6
SYMATTR Value 500n
SYMBOL cap 176 304 R90
WINDOW 0 0 32 VBottom 2
WINDOW 3 32 32 VTop 2
SYMATTR InstName C7
SYMATTR Value 500p
SYMBOL r 224 496 R90
SYMATTR InstName R15
SYMATTR Value 1Meg
SYMBOL r 0 912 R90
SYMATTR InstName R16
SYMATTR Value 140k
SYMBOL r 352 512 R90
SYMATTR InstName R17
SYMATTR Value 1Meg
TEXT 400 -224 Left 2 ;.tran 0 35 2
TEXT 400 -264 Left 2 ;.four 1k out
TEXT -432 -112 Left 2 ;.wave sample9(novo_G=4,trafo,cnfb,menos_ag).wav 16 44100 out
TEXT -432 -176 Left 2 ;wavefile=teste_atenuado.wav\n*escrever na fonte
TEXT 416 -152 Left 2 ;.tran 0 1.02 1 10u
TEXT 424 -104 Left 2 !.ac oct 10 10 25k
TEXT 208 32 Left 2 ;O sample6 é este mesmo circuito sem NFB
TEXT 1480 56 Left 2 !k1 L1 L2 0.9998
TEXT 776 16 Left 2 !.four 1k 9 v(out)
TEXT 440 -48 Left 2 ;.tran 0 200.1m 0.9m 100u
TEXT -128 -24 Left 2 ;.ac dec 100 10 3000k
