Version 4
SHEET 1 1988 1380
WIRE 1456 320 1168 320
WIRE 560 368 560 352
WIRE 560 368 384 368
WIRE 704 368 560 368
WIRE 1168 384 1168 320
WIRE 704 400 704 368
WIRE 1296 432 1216 432
WIRE 1120 448 1024 448
WIRE -288 480 -288 432
WIRE -160 480 -288 480
WIRE -112 480 -160 480
WIRE 0 480 -48 480
WIRE 1456 480 1456 320
WIRE 704 496 704 464
WIRE 880 496 704 496
WIRE 1024 496 1024 448
WIRE 1024 496 944 496
WIRE -288 528 -288 480
WIRE 384 560 384 368
WIRE 1024 560 1024 496
WIRE 1296 560 1296 432
WIRE 1456 560 1296 560
WIRE 1664 560 1568 560
WIRE 1744 560 1664 560
WIRE -656 576 -896 576
WIRE -592 576 -656 576
WIRE -464 576 -528 576
WIRE -336 576 -464 576
WIRE -896 592 -896 576
WIRE -160 608 -160 480
WIRE -112 608 -160 608
WIRE 0 608 0 480
WIRE 0 608 -48 608
WIRE 704 608 704 496
WIRE 1568 608 1568 560
WIRE 1744 608 1744 560
WIRE -160 640 -160 608
WIRE -656 656 -656 576
WIRE -464 656 -464 576
WIRE 384 656 384 624
WIRE 464 656 384 656
WIRE 560 656 528 656
WIRE 576 656 560 656
WIRE 656 656 640 656
WIRE 1328 656 1280 656
WIRE 1456 656 1456 640
WIRE 1456 656 1408 656
WIRE 144 672 0 672
WIRE 1024 672 1024 624
WIRE 1024 672 976 672
WIRE 1040 672 1024 672
WIRE 1136 672 1136 496
WIRE 1136 672 1104 672
WIRE 384 688 384 656
WIRE 1456 688 1456 656
WIRE -320 704 -320 624
WIRE 1024 720 1024 672
WIRE 1568 720 1568 688
WIRE 1744 720 1744 672
WIRE 224 736 144 736
WIRE 336 736 288 736
WIRE 560 736 560 656
WIRE -160 752 -160 704
WIRE -112 752 -160 752
WIRE 0 752 0 736
WIRE 0 752 -48 752
WIRE 80 752 0 752
WIRE 672 768 672 704
WIRE 1456 768 1296 768
WIRE -320 784 -320 768
WIRE -240 784 -320 784
WIRE -320 816 -320 784
WIRE 80 816 80 752
WIRE 80 816 0 816
WIRE -656 832 -656 720
WIRE -464 832 -464 720
WIRE 352 832 352 784
WIRE 400 832 352 832
WIRE 560 848 560 800
WIRE 672 848 672 832
WIRE 672 848 560 848
WIRE 880 848 672 848
WIRE 1024 848 1024 784
WIRE 1024 848 944 848
WIRE 1136 848 1136 672
WIRE 400 880 400 832
WIRE 0 896 0 880
WIRE 1024 896 1024 848
WIRE 1120 896 1024 896
WIRE 1296 912 1296 768
WIRE 1296 912 1216 912
WIRE -160 960 -160 752
WIRE -112 960 -160 960
WIRE 0 960 -48 960
WIRE 400 976 400 944
WIRE 1168 1040 1168 960
WIRE 1456 1040 1456 848
WIRE 1456 1040 1168 1040
WIRE -240 1120 -240 784
WIRE 144 1120 -240 1120
WIRE 1664 1120 1664 560
WIRE 1664 1120 208 1120
FLAG -288 288 0
FLAG -896 672 0
FLAG 352 896 0
FLAG -656 832 0
FLAG 560 272 0
FLAG -896 576 in
FLAG -464 832 0
FLAG 400 976 0
FLAG 0 1024 0
FLAG 144 800 0
FLAG 672 912 0
FLAG 1568 720 0
FLAG 1744 720 0
FLAG 976 672 0
FLAG 1280 656 0
FLAG 1744 560 out
FLAG -320 880 0
SYMBOL r -656 656 R90
SYMATTR InstName R1
SYMATTR Value 1Meg
SYMBOL r -288 368 R90
SYMATTR InstName R2
SYMATTR Value 100k
SYMBOL r -528 576 R180
SYMATTR InstName R3
SYMATTR Value 33k
SYMBOL voltage -288 384 R180
WINDOW 0 24 96 Left 2
WINDOW 3 24 16 Left 2
SYMATTR InstName V1
SYMATTR Value 250v
SYMBOL voltage -896 576 R0
WINDOW 3 24 38 Left 2
SYMATTR Value SINE(0 50m 1k)
SYMATTR InstName V2
SYMATTR Value2 AC 1
SYMBOL r 672 768 R90
SYMATTR InstName R4
SYMATTR Value 0
SYMBOL r -320 704 R90
SYMATTR InstName R5
SYMATTR Value 1500
SYMBOL r 384 560 R90
SYMATTR InstName R6
SYMATTR Value 100k
SYMBOL voltage 560 368 R180
WINDOW 0 24 96 Left 2
WINDOW 3 24 16 Left 2
SYMATTR InstName V3
SYMATTR Value 300v
SYMBOL r 352 832 R90
SYMATTR InstName R8
SYMATTR Value 820
SYMBOL misc/VacuumTubes/NormanKoren/12AX7 -288 576 R0
SYMATTR InstName U1
SYMBOL misc/VacuumTubes/NormanKoren/12AU7 704 656 R0
SYMATTR InstName U2
SYMBOL misc/VacuumTubes/NormanKoren/12AX7 384 736 R0
SYMATTR InstName U3
SYMBOL cap -480 656 R0
SYMATTR InstName C4
SYMATTR Value 47p
SYMBOL cap -48 464 R90
WINDOW 0 0 32 VBottom 2
WINDOW 3 32 32 VTop 2
SYMATTR InstName C7
SYMATTR Value 220p
SYMBOL cap -48 592 R90
WINDOW 0 6 71 VBottom 2
WINDOW 3 21 69 VTop 2
SYMATTR InstName C8
SYMATTR Value 470p
SYMBOL cap -48 736 R90
WINDOW 0 14 70 VBottom 2
WINDOW 3 22 71 VTop 2
SYMATTR InstName C9
SYMATTR Value 22n
SYMBOL cap -48 944 R90
WINDOW 0 4 63 VBottom 2
WINDOW 3 20 64 VTop 2
SYMATTR InstName C10
SYMATTR Value 22n
SYMBOL r 0 608 R90
SYMATTR InstName R13
SYMATTR Value 0
SYMBOL r 0 672 R90
SYMATTR InstName R14
SYMATTR Value 250k
SYMBOL r 0 752 R90
SYMATTR InstName R15
SYMATTR Value 0
SYMBOL r 0 816 R90
SYMATTR InstName R16
SYMATTR Value 1Meg
SYMBOL r 0 896 R90
SYMATTR InstName R17
SYMATTR Value 0
SYMBOL r 0 960 R90
SYMATTR InstName R18
SYMATTR Value 250k
SYMBOL r -160 640 R90
SYMATTR InstName R19
SYMATTR Value 100k
SYMBOL r 144 672 R90
SYMATTR InstName R20
SYMATTR Value 0
SYMBOL r 144 736 R90
SYMATTR InstName R21
SYMATTR Value 1Meg
SYMBOL cap 944 832 R90
WINDOW 0 0 32 VBottom 2
WINDOW 3 32 32 VTop 2
SYMATTR InstName C2
SYMATTR Value 2.7n
SYMBOL r 672 848 R90
SYMATTR InstName R10
SYMATTR Value 33k
SYMBOL r 640 656 R180
SYMATTR InstName R11
SYMATTR Value 0
SYMBOL r 224 736 R0
SYMATTR InstName R7
SYMATTR Value 1k
SYMBOL cap 528 640 R90
WINDOW 0 0 32 VBottom 2
WINDOW 3 32 32 VTop 2
SYMATTR InstName C1
SYMATTR Value 10n
SYMBOL ind2 1440 544 R0
SYMATTR InstName L1
SYMATTR Value 6.407
SYMATTR Type ind
SYMBOL ind2 1440 672 R0
SYMATTR InstName L2
SYMATTR Value 6.407
SYMATTR Type ind
SYMBOL ind2 1584 704 R180
WINDOW 0 -29 67 Left 2
WINDOW 3 -80 36 Left 2
SYMATTR InstName L3
SYMATTR Type ind
SYMATTR Value 0.5227
SYMBOL misc/VacuumTubes/NormanKoren/EL34 1168 432 R0
SYMATTR InstName U4
SYMBOL r 1744 608 R90
SYMATTR InstName R9
SYMATTR Value 8
SYMBOL misc/VacuumTubes/NormanKoren/EL34 1168 912 M180
SYMATTR InstName U5
SYMBOL cap 944 480 R90
WINDOW 0 0 32 VBottom 2
WINDOW 3 32 32 VTop 2
SYMATTR InstName C3
SYMATTR Value 2.7n
SYMBOL r 704 400 R90
SYMATTR InstName R12
SYMATTR Value 33k
SYMBOL r 1024 560 R90
SYMATTR InstName R22
SYMATTR Value 470k
SYMBOL r 1024 720 R90
SYMATTR InstName R23
SYMATTR Value 470k
SYMBOL r 1104 672 R180
SYMATTR InstName R24
SYMATTR Value 300
SYMBOL ind2 1440 464 R0
SYMATTR InstName L4
SYMATTR Value 8.493
SYMATTR Type ind
SYMBOL ind2 1440 752 R0
SYMATTR InstName L5
SYMATTR Value 8.493
SYMATTR Type ind
SYMBOL voltage 1424 656 R90
WINDOW 0 -32 56 VBottom 2
WINDOW 3 32 56 VTop 2
SYMATTR InstName V4
SYMATTR Value 400
SYMBOL r 560 736 R90
SYMATTR InstName R25
SYMATTR Value 1000000Meg
SYMBOL r -320 816 R90
SYMATTR InstName R26
SYMATTR Value 150
SYMBOL r 144 1120 R0
SYMATTR InstName R27
SYMATTR Value 220k
TEXT -96 288 Left 2 ;.ac dec 10 1 20meg
TEXT -112 232 Left 2 !.four 1k 9 v(out)
TEXT -80 344 Left 2 !.tran 0 310m 290m 100u
TEXT 1560 512 Left 2 !K1 L1 L2 L3 L4 L5 1
