Version 4
SHEET 1 1812 2224
WIRE 1424 48 1424 32
WIRE 1456 48 1424 48
WIRE 1552 48 1520 48
WIRE 1424 80 1424 48
WIRE 1552 80 1552 48
WIRE 1552 80 1536 80
WIRE 1584 80 1552 80
WIRE 1648 80 1584 80
WIRE 1648 144 1648 80
WIRE 1424 176 1424 160
WIRE 1424 176 1248 176
WIRE 1248 256 1248 176
WIRE 1536 256 1536 160
WIRE -48 288 -48 240
WIRE 80 288 -48 288
WIRE 128 288 80 288
WIRE 240 288 192 288
WIRE 1200 304 1104 304
WIRE -48 336 -48 288
WIRE 512 368 512 240
WIRE 832 368 672 368
WIRE -416 384 -656 384
WIRE -352 384 -416 384
WIRE -224 384 -288 384
WIRE -96 384 -224 384
WIRE -656 400 -656 384
WIRE 1216 400 1216 352
WIRE 1264 400 1216 400
WIRE 80 416 80 288
WIRE 128 416 80 416
WIRE 240 416 240 288
WIRE 240 416 192 416
WIRE 1216 416 1216 400
WIRE 1264 416 1264 400
WIRE 80 448 80 416
WIRE -416 464 -416 384
WIRE -224 464 -224 384
WIRE 512 464 512 432
WIRE 576 464 512 464
WIRE 672 464 672 368
WIRE 672 464 640 464
WIRE 752 464 672 464
WIRE 832 464 832 368
WIRE 832 464 816 464
WIRE 848 464 832 464
WIRE 944 464 912 464
WIRE 992 464 944 464
WIRE 1104 464 1104 304
WIRE 1104 464 1056 464
WIRE 384 480 240 480
WIRE 512 496 512 464
WIRE 1216 496 1216 480
WIRE 1264 496 1264 480
WIRE -80 512 -80 432
WIRE 1104 512 1104 464
WIRE 464 544 384 544
WIRE 672 544 672 464
WIRE 80 560 80 512
WIRE 128 560 80 560
WIRE 240 560 240 544
WIRE 240 560 192 560
WIRE 320 560 240 560
WIRE 944 560 944 464
WIRE -80 592 -80 576
WIRE -16 592 -80 592
WIRE -80 608 -80 592
WIRE 320 624 320 560
WIRE 320 624 240 624
WIRE -416 640 -416 528
WIRE -224 640 -224 528
WIRE 480 640 480 592
WIRE 528 640 480 640
WIRE 1104 656 1104 576
WIRE 528 688 528 640
WIRE 240 704 240 688
WIRE 672 704 672 608
WIRE 944 704 944 624
WIRE 80 768 80 560
WIRE 128 768 80 768
WIRE 240 768 192 768
WIRE 528 784 528 752
WIRE -16 944 -16 592
WIRE 32 944 -16 944
WIRE 1584 944 1584 80
WIRE 1584 944 96 944
FLAG -48 96 0
FLAG -656 480 0
FLAG 480 704 0
FLAG -416 640 0
FLAG 512 160 0
FLAG 672 704 0
FLAG 944 704 0
FLAG 1648 208 0
FLAG 1424 -48 0
FLAG 1648 80 out
FLAG 1104 656 0
FLAG 1264 496 0
FLAG 1216 496 0
FLAG -656 384 in
FLAG 1536 256 0
FLAG -224 640 0
FLAG 528 784 0
FLAG 240 832 0
FLAG 384 608 0
FLAG -80 672 0
SYMBOL r -416 464 R90
SYMATTR InstName R1
SYMATTR Value 1Meg
SYMBOL r -48 176 R90
SYMATTR InstName R2
SYMATTR Value 100k
SYMBOL r -288 384 R180
SYMATTR InstName R3
SYMATTR Value 33k
SYMBOL voltage -48 192 R180
WINDOW 0 24 96 Left 2
WINDOW 3 24 16 Left 2
SYMATTR InstName V1
SYMATTR Value 200
SYMBOL voltage -656 384 R0
WINDOW 3 24 38 Left 2
SYMATTR Value SINE(0 50m 1k)
SYMATTR InstName V2
SYMATTR Value2 AC 1
SYMBOL r 1216 416 R90
SYMATTR InstName R4
SYMATTR Value 470
SYMBOL r -80 512 R90
SYMATTR InstName R5
SYMATTR Value 1500
SYMBOL r 512 368 R90
SYMATTR InstName R6
SYMATTR Value 100k
SYMBOL voltage 512 256 R180
WINDOW 0 24 96 Left 2
WINDOW 3 24 16 Left 2
SYMATTR InstName V3
SYMATTR Value 250
SYMBOL cap 640 448 R90
WINDOW 0 0 32 VBottom 2
WINDOW 3 32 32 VTop 2
SYMATTR InstName C1
SYMATTR Value 5n
SYMBOL r 672 544 R90
SYMATTR InstName R7
SYMATTR Value 500k
SYMBOL r 480 640 R90
SYMATTR InstName R8
SYMATTR Value 1500
SYMBOL r 752 464 R0
SYMATTR InstName R9
SYMATTR Value 500k
SYMBOL r 848 464 R0
SYMATTR InstName R10
SYMATTR Value 1
SYMBOL cap 928 560 R0
SYMATTR InstName C2
SYMATTR Value 500p
SYMBOL r 1104 512 R90
SYMATTR InstName R11
SYMATTR Value 1Meg
SYMBOL ind2 1408 176 M180
WINDOW 0 -37 85 Left 2
WINDOW 3 -52 38 Left 2
SYMATTR InstName L1
SYMATTR Value 40
SYMATTR Type ind
SYMATTR SpiceLine Rser=640
SYMBOL ind2 1552 176 R180
WINDOW 0 36 80 Left 2
WINDOW 3 36 40 Left 2
SYMATTR InstName L2
SYMATTR Value 1.6
SYMATTR Type ind
SYMATTR SpiceLine Rser=50
SYMBOL r 1648 144 R90
SYMATTR InstName R12
SYMATTR Value 10k
SYMBOL voltage 1424 48 R180
WINDOW 0 24 96 Left 2
WINDOW 3 24 16 Left 2
SYMATTR InstName V4
SYMATTR Value 300
SYMBOL misc/VacuumTubes/NormanKoren/12AX7 -48 384 R0
SYMATTR InstName U1
SYMBOL misc/VacuumTubes/NormanKoren/12AU7 1248 304 R0
SYMATTR InstName U2
SYMBOL misc/VacuumTubes/NormanKoren/12AX7 512 544 R0
SYMATTR InstName U3
SYMBOL cap 1248 416 R0
SYMATTR InstName C4
SYMATTR Value 47µ
SYMBOL cap -240 464 R0
SYMATTR InstName C5
SYMATTR Value 0
SYMBOL cap 1056 448 R90
WINDOW 0 0 32 VBottom 2
WINDOW 3 32 32 VTop 2
SYMATTR InstName C6
SYMATTR Value 5n
SYMBOL cap 512 688 R0
SYMATTR InstName C7
SYMATTR Value 10µ
SYMBOL r 32 944 R0
SYMATTR InstName Rf
SYMATTR Value 68k
SYMBOL cap 192 272 R90
WINDOW 0 0 32 VBottom 2
WINDOW 3 32 32 VTop 2
SYMATTR InstName C8
SYMATTR Value 470p
SYMBOL cap 192 400 R90
WINDOW 0 6 71 VBottom 2
WINDOW 3 21 69 VTop 2
SYMATTR InstName C9
SYMATTR Value 470p
SYMBOL cap 192 544 R90
WINDOW 0 14 70 VBottom 2
WINDOW 3 22 71 VTop 2
SYMATTR InstName C10
SYMATTR Value 22n
SYMBOL cap 192 752 R90
WINDOW 0 4 63 VBottom 2
WINDOW 3 20 64 VTop 2
SYMATTR InstName C11
SYMATTR Value 22n
SYMBOL r 240 416 R90
SYMATTR InstName R15
SYMATTR Value 0
SYMBOL r 240 480 R90
SYMATTR InstName R17
SYMATTR Value 250k
SYMBOL r 240 560 R90
SYMATTR InstName R18
SYMATTR Value 0
SYMBOL r 240 624 R90
SYMATTR InstName R19
SYMATTR Value 1Meg
SYMBOL r 240 704 R90
SYMATTR InstName R20
SYMATTR Value 0
SYMBOL r 240 768 R90
SYMATTR InstName R21
SYMATTR Value 250k
SYMBOL r 80 448 R90
SYMATTR InstName R13
SYMATTR Value 100k
SYMBOL r 384 480 R90
SYMATTR InstName R14
SYMATTR Value 0
SYMBOL r 384 544 R90
SYMATTR InstName R22
SYMATTR Value 1Meg
SYMBOL r -80 608 R90
SYMATTR InstName R16
SYMATTR Value 47
SYMBOL cap 1520 32 R90
WINDOW 0 0 32 VBottom 2
WINDOW 3 32 32 VTop 2
SYMATTR InstName C3
SYMATTR Value 10n
TEXT 136 -488 Left 2 ;.tran 0 35 2
TEXT 136 -528 Left 2 ;.four 1k out
TEXT -696 -376 Left 2 ;.wave sample9(novo_G=4,trafo,cnfb,menos_ag).wav 16 44100 out
TEXT -696 -440 Left 2 ;wavefile=teste_atenuado.wav\n*escrever na fonte
TEXT 152 -416 Left 2 !.tran 0 1.02 1 10u
TEXT 160 -368 Left 2 ;.ac dec 10 1 20meg
TEXT -56 -232 Left 2 ;O sample6 é este mesmo circuito sem NFB
TEXT 1576 24 Left 2 !k1 L1 L2 0.9998
TEXT 512 -248 Left 2 !.four 1k 9 v(out)
TEXT 176 -312 Left 2 ;.tran 0 310m 290m 100u
TEXT -392 -288 Left 2 ;.ac dec 100 10 30k
TEXT 768 -488 Left 2 ;.noise V(out) V2 oct 10 10 30meg
