Version 4
SHEET 1 1316 1188
WIRE -144 464 -144 416
WIRE -16 464 -144 464
WIRE 832 480 832 400
WIRE 832 480 512 480
WIRE -144 512 -144 464
WIRE 512 544 512 480
WIRE -512 560 -752 560
WIRE -448 560 -512 560
WIRE -320 560 -384 560
WIRE -192 560 -320 560
WIRE -752 576 -752 560
WIRE -16 592 -16 464
WIRE 32 592 -16 592
WIRE 144 592 96 592
WIRE 832 592 832 480
WIRE -16 624 -16 592
WIRE -512 640 -512 560
WIRE -320 640 -320 560
WIRE 512 640 512 608
WIRE 576 640 512 640
WIRE 672 640 640 640
WIRE 784 640 736 640
WIRE 288 656 144 656
WIRE 512 672 512 640
WIRE -176 688 -176 608
WIRE 368 720 288 720
WIRE 464 720 432 720
WIRE -16 736 -16 688
WIRE 32 736 -16 736
WIRE 144 736 144 720
WIRE 144 736 96 736
WIRE 224 736 144 736
WIRE 800 752 800 688
WIRE -176 784 -176 752
WIRE 224 800 224 736
WIRE 224 800 144 800
WIRE -512 816 -512 704
WIRE -320 816 -320 704
WIRE 480 816 480 768
WIRE 528 816 480 816
WIRE 928 816 800 816
WIRE 1200 816 992 816
WIRE 800 832 800 816
WIRE 1200 832 1200 816
WIRE 528 864 528 816
WIRE 144 880 144 864
WIRE 1200 896 1200 832
WIRE 800 928 800 896
WIRE -16 944 -16 736
WIRE 32 944 -16 944
WIRE 144 944 96 944
WIRE 528 960 528 928
FLAG -144 272 0
FLAG -752 656 0
FLAG 480 880 0
FLAG -512 816 0
FLAG 832 320 0
FLAG 1200 960 0
FLAG 1200 832 out
FLAG -752 560 in
FLAG -320 816 0
FLAG 528 960 0
FLAG 144 1008 0
FLAG 288 784 0
FLAG 800 928 0
FLAG -176 784 0
SYMBOL r -512 640 R90
SYMATTR InstName R1
SYMATTR Value 1Meg
SYMBOL r -144 352 R90
SYMATTR InstName R2
SYMATTR Value 100k
SYMBOL r -384 560 R180
SYMATTR InstName R3
SYMATTR Value 33k
SYMBOL voltage -144 368 R180
WINDOW 0 24 96 Left 2
WINDOW 3 24 16 Left 2
SYMATTR InstName V1
SYMATTR Value 300
SYMBOL voltage -752 560 R0
WINDOW 3 24 38 Left 2
SYMATTR Value SINE(0 1m 1k)
SYMATTR InstName V2
SYMATTR Value2 AC 1
SYMBOL r 800 752 R90
SYMATTR InstName R4
SYMATTR Value 0
SYMBOL r -176 688 R90
SYMATTR InstName R5
SYMATTR Value 1500
SYMBOL r 512 544 R90
SYMATTR InstName R6
SYMATTR Value 100k
SYMBOL voltage 832 416 R180
WINDOW 0 24 96 Left 2
WINDOW 3 24 16 Left 2
SYMATTR InstName V3
SYMATTR Value 300
SYMBOL cap 640 624 R90
WINDOW 0 0 32 VBottom 2
WINDOW 3 32 32 VTop 2
SYMATTR InstName C1
SYMATTR Value 10n
SYMBOL r 480 816 R90
SYMATTR InstName R8
SYMATTR Value 820
SYMBOL r 1200 896 R90
SYMATTR InstName R9
SYMATTR Value 10k
SYMBOL misc/VacuumTubes/NormanKoren/12AX7 -144 560 R0
SYMATTR InstName U1
SYMBOL misc/VacuumTubes/NormanKoren/12AU7 832 640 R0
SYMATTR InstName U2
SYMBOL misc/VacuumTubes/NormanKoren/12AX7 512 720 R0
SYMATTR InstName U3
SYMBOL cap -336 640 R0
SYMATTR InstName C3
SYMATTR Value 47p
SYMBOL cap 512 864 R0
SYMATTR InstName C4
SYMATTR Value 25µ
SYMBOL cap 96 576 R90
WINDOW 0 6 71 VBottom 2
WINDOW 3 21 69 VTop 2
SYMATTR InstName C6
SYMATTR Value 470p
SYMBOL cap 96 720 R90
WINDOW 0 14 70 VBottom 2
WINDOW 3 22 71 VTop 2
SYMATTR InstName C7
SYMATTR Value 22n
SYMBOL cap 96 928 R90
WINDOW 0 4 63 VBottom 2
WINDOW 3 20 64 VTop 2
SYMATTR InstName C8
SYMATTR Value 22n
SYMBOL r 144 592 R90
SYMATTR InstName R10
SYMATTR Value 0
SYMBOL r 144 656 R90
SYMATTR InstName R11
SYMATTR Value 250k
SYMBOL r 144 736 R90
SYMATTR InstName R12
SYMATTR Value 0
SYMBOL r 144 800 R90
SYMATTR InstName R13
SYMATTR Value 1Meg
SYMBOL r 144 880 R90
SYMATTR InstName R14
SYMATTR Value 0
SYMBOL r 144 944 R90
SYMATTR InstName R15
SYMATTR Value 250k
SYMBOL r -16 624 R90
SYMATTR InstName R16
SYMATTR Value 100k
SYMBOL r 288 656 R90
SYMATTR InstName R17
SYMATTR Value 0
SYMBOL r 288 720 R90
SYMATTR InstName R18
SYMATTR Value 1Meg
SYMBOL cap 992 800 R90
WINDOW 0 0 32 VBottom 2
WINDOW 3 32 32 VTop 2
SYMATTR InstName C9
SYMATTR Value 2µ
SYMBOL r 432 720 R180
SYMATTR InstName R20
SYMATTR Value 0
SYMBOL r 672 640 R0
SYMATTR InstName R7
SYMATTR Value 0
SYMBOL r 800 832 R90
SYMATTR InstName R21
SYMATTR Value 18k
TEXT 40 -312 Left 2 ;.tran 0 35 2
TEXT -792 -200 Left 2 ;.wave sample9(novo_G=4,trafo,cnfb,menos_ag).wav 16 44100 out
TEXT -792 -264 Left 2 ;wavefile=teste_atenuado.wav\n*escrever na fonte
TEXT 56 -240 Left 2 ;.tran 0 1.02 1 10u
TEXT 64 -192 Left 2 ;.ac dec 10 1 20meg
TEXT -152 -56 Left 2 ;O sample6 é este mesmo circuito sem NFB
TEXT 416 -72 Left 2 !.four 1k 9 v(out)
TEXT 80 -136 Left 2 !.tran 0 310m 290m 100u
TEXT -488 -112 Left 2 ;.ac dec 100 10 30k
TEXT 672 -312 Left 2 ;.noise V(out) V2 oct 10 10 30meg
