Version 4
SHEET 1 1560 1144
WIRE -288 -384 -288 -448
WIRE 448 -384 448 -448
WIRE 1088 -384 1088 -416
WIRE 1120 -384 1088 -384
WIRE 1344 -384 1200 -384
WIRE 1120 -368 1120 -384
WIRE 1200 -368 1200 -384
WIRE 1344 -352 1344 -384
WIRE 1120 -272 1120 -288
WIRE 1120 -272 864 -272
WIRE 1200 -272 1200 -288
WIRE 1344 -272 1344 -288
WIRE 1344 -272 1200 -272
WIRE -288 -256 -288 -304
WIRE -208 -256 -288 -256
WIRE -80 -256 -144 -256
WIRE 64 -256 -80 -256
WIRE 144 -256 64 -256
WIRE 448 -256 448 -320
WIRE 576 -256 448 -256
WIRE 656 -256 640 -256
WIRE 144 -240 144 -256
WIRE 304 -240 144 -240
WIRE 864 -240 864 -272
WIRE -288 -208 -288 -256
WIRE -80 -208 -80 -256
WIRE 64 -208 64 -256
WIRE 448 -208 448 -256
WIRE -80 -192 -80 -208
WIRE 944 -176 912 -176
WIRE -560 -160 -752 -160
WIRE -512 -160 -560 -160
WIRE -336 -160 -432 -160
WIRE 144 -160 144 -240
WIRE 144 -160 128 -160
WIRE 160 -160 144 -160
WIRE 272 -160 224 -160
WIRE 304 -160 304 -240
WIRE 304 -160 272 -160
WIRE 400 -160 304 -160
WIRE 656 -160 656 -256
WIRE 688 -160 656 -160
WIRE 816 -160 752 -160
WIRE 144 -144 144 -160
WIRE -80 -128 -80 -144
WIRE 64 -128 64 -144
WIRE 64 -128 -80 -128
WIRE 128 -128 128 -160
WIRE 128 -128 64 -128
WIRE -752 -96 -752 -160
WIRE -320 -96 -320 -112
WIRE -320 -96 -400 -96
WIRE -80 -96 -80 -128
WIRE 64 -96 64 -128
WIRE -560 -80 -560 -160
WIRE -320 -80 -320 -96
WIRE 272 -80 272 -160
WIRE 416 -80 416 -112
WIRE 416 -80 352 -80
WIRE 656 -80 656 -160
WIRE -400 -64 -400 -96
WIRE 832 -32 832 -112
WIRE 896 -32 832 -32
WIRE 832 0 832 -32
WIRE 896 0 896 -32
WIRE 64 16 64 -16
WIRE 272 16 272 -16
WIRE -752 32 -752 -16
WIRE -560 32 -560 0
WIRE -400 32 -400 0
WIRE -320 32 -320 0
WIRE 352 32 352 -16
WIRE 416 32 416 0
WIRE 656 32 656 -16
WIRE 832 112 832 64
WIRE 896 112 896 64
WIRE -80 128 -80 -16
WIRE 64 128 64 80
WIRE 352 128 352 96
WIRE 416 128 416 112
WIRE 1104 320 1104 224
WIRE 1104 320 1040 320
WIRE 1136 320 1104 320
WIRE 1232 320 1232 224
WIRE 1232 320 1216 320
WIRE 1264 320 1232 320
WIRE 1360 320 1360 224
WIRE 1360 320 1344 320
WIRE 1392 320 1360 320
WIRE 1488 320 1488 224
WIRE 1488 320 1472 320
WIRE 1104 368 1104 320
WIRE 1232 368 1232 320
WIRE 1360 368 1360 320
WIRE 1488 368 1488 320
WIRE 1104 384 1104 368
WIRE 1232 384 1232 368
WIRE 1360 384 1360 368
WIRE 1488 384 1488 368
WIRE 1104 464 1104 432
WIRE 1232 464 1232 432
WIRE 1360 464 1360 432
WIRE 1488 464 1488 432
WIRE 1040 512 1040 320
FLAG -560 32 0
FLAG -400 32 0
FLAG -320 32 0
FLAG -288 -448 a_1
FLAG -80 128 0
FLAG 64 128 0
FLAG 416 128 0
FLAG 352 128 0
FLAG 448 -448 a_2
FLAG 656 32 0
FLAG 832 112 0
FLAG 896 112 0
FLAG 944 -176 g_pen
FLAG 1088 -416 a_pen
FLAG -752 32 0
FLAG 1344 -272 0
FLAG 1104 464 0
FLAG 1232 464 0
FLAG 1360 464 0
FLAG 1488 464 0
FLAG 1488 224 a_1
FLAG 1360 224 a_2
FLAG 1232 224 g_pen
FLAG 1104 224 a_pen
FLAG 896 320 0
FLAG 896 512 0
FLAG 272 16 0
SYMBOL res -576 -96 R0
SYMATTR InstName R4
SYMATTR Value 1,8m
SYMBOL res -416 -176 R90
WINDOW 0 0 56 VBottom 2
WINDOW 3 32 56 VTop 2
SYMATTR InstName R5
SYMATTR Value 27k
SYMBOL res -304 16 R180
WINDOW 0 36 76 Left 2
WINDOW 3 36 40 Left 2
SYMATTR InstName R6
SYMATTR Value 2,2k
SYMBOL res -272 -288 R180
WINDOW 0 36 76 Left 2
WINDOW 3 36 40 Left 2
SYMATTR InstName R7
SYMATTR Value 220k
SYMBOL misc/VacuumTubes/triodes/12AX7A -288 -160 R0
SYMATTR InstName U1
SYMBOL misc/VacuumTubes/triodes/12AX7A 448 -160 R0
SYMATTR InstName U2
SYMBOL cap -416 -64 R0
WINDOW 0 -18 8 Left 2
WINDOW 3 -12 61 Left 2
SYMATTR InstName C5
SYMATTR Value 1µ
SYMBOL cap -144 -272 R90
WINDOW 0 0 32 VBottom 2
WINDOW 3 32 32 VTop 2
SYMATTR InstName C6
SYMATTR Value 4,7n
SYMBOL cap -64 -144 R180
WINDOW 0 24 56 Left 2
WINDOW 3 24 8 Left 2
SYMATTR InstName C7
SYMATTR Value 220p
SYMBOL r 64 -208 R90
SYMATTR InstName R8
SYMATTR Value 220k
SYMBOL cap 224 -176 R90
WINDOW 0 0 32 VBottom 2
WINDOW 3 32 32 VTop 2
SYMATTR InstName C8
SYMATTR Value 22n
SYMBOL cap 48 16 R0
SYMATTR InstName C9
SYMATTR Value 4n7
SYMBOL res 400 -96 R0
SYMATTR InstName R9
SYMATTR Value 1,5k
SYMBOL res 400 16 R0
SYMATTR InstName R10
SYMATTR Value 3,9k
SYMBOL cap 336 -80 R0
SYMATTR InstName C10
SYMATTR Value 10µ
SYMBOL cap 336 32 R0
SYMATTR InstName C11
SYMATTR Value 2µ2
SYMBOL r 272 -80 R90
SYMATTR InstName R11
SYMATTR Value 1,8m
SYMBOL r 448 -384 R90
SYMATTR InstName R12
SYMATTR Value 220k
SYMBOL cap 640 -272 R90
WINDOW 0 0 32 VBottom 2
WINDOW 3 32 32 VTop 2
SYMATTR InstName C12
SYMATTR Value 100n
SYMBOL misc/VacuumTubes/pentrodes/6bq5 864 -176 R0
SYMATTR InstName U6
SYMBOL r 656 -80 R90
SYMATTR InstName R13
SYMATTR Value 220k
SYMBOL cap 816 0 R0
WINDOW 0 -51 17 Left 2
WINDOW 3 -55 38 Left 2
SYMATTR InstName C14
SYMATTR Value 220µ
SYMBOL r 896 0 R90
WINDOW 0 43 -63 VRight 2
WINDOW 3 20 -74 VRight 2
SYMATTR InstName R14
SYMATTR Value 220
SYMBOL r 688 -160 R0
WINDOW 0 52 -53 VRight 2
SYMATTR InstName R15
SYMATTR Value 5,6k
SYMBOL ind2 1104 -272 M180
WINDOW 0 36 80 Left 2
WINDOW 3 36 40 Left 2
SYMATTR InstName Out_prim
SYMATTR Value 25µ
SYMATTR Type ind
SYMBOL ind2 1216 -384 M0
SYMATTR InstName Out_sec
SYMATTR Value 1µ
SYMATTR Type ind
SYMBOL r 1344 -352 R90
WINDOW 0 45 -99 VRight 2
WINDOW 3 15 -45 VRight 2
SYMATTR InstName speaker
SYMATTR Value 8
SYMBOL misc/signal -752 -112 R0
SYMATTR InstName V1
SYMATTR Value SINE(0 0.25 1K)
SYMATTR Value2 AC 0.25
SYMBOL res 1360 304 R90
WINDOW 0 0 56 VBottom 2
WINDOW 3 32 56 VTop 2
SYMATTR InstName R19
SYMATTR Value 22k
SYMBOL res 1232 304 R90
WINDOW 0 0 56 VBottom 2
WINDOW 3 32 56 VTop 2
SYMATTR InstName R20
SYMATTR Value 470
SYMBOL res 1488 304 R90
WINDOW 0 0 56 VBottom 2
WINDOW 3 32 56 VTop 2
SYMATTR InstName R22
SYMATTR Value 22k
SYMBOL cap 1088 368 R0
SYMATTR InstName C13
SYMATTR Value 100µ
SYMBOL cap 1216 368 R0
SYMATTR InstName C15
SYMATTR Value 33µ
SYMBOL cap 1344 368 R0
SYMATTR InstName C16
SYMATTR Value 10µ
SYMBOL cap 1472 368 R0
SYMATTR InstName C17
SYMATTR Value 10µ
SYMBOL diode 976 336 R270
WINDOW 0 32 32 VTop 2
WINDOW 3 0 32 VBottom 2
SYMATTR InstName D3
SYMBOL diode 976 528 R270
WINDOW 0 32 32 VTop 2
WINDOW 3 0 32 VBottom 2
SYMATTR InstName D4
SYMBOL voltage 992 512 R90
WINDOW 0 -32 56 VBottom 2
WINDOW 3 32 56 VTop 2
SYMATTR InstName rede1
SYMATTR Value SINE(0 350 60)
SYMATTR Value2 AC 350
SYMBOL voltage 992 320 R90
WINDOW 0 -32 56 VBottom 2
WINDOW 3 32 56 VTop 2
SYMATTR InstName rede2
SYMATTR Value SINE(0 350 60)
SYMATTR Value2 AC 350
SYMBOL res -96 -112 R0
SYMATTR InstName R1
SYMATTR Value 500k
SYMBOL res 48 -112 R0
SYMATTR InstName R2
SYMATTR Value 500k
TEXT 1056 -240 Left 2 !K Out_prim Out_sec 1
TEXT -584 272 Left 2 ;Vox ac4 TVH - Pequenas alterações\nJoão Victor Colombari Carlet\n02/09/20
TEXT -528 376 Left 2 ;.ac dec 100 20 20k
TEXT 672 -328 Left 2 !.tran 15
