Version 4
SHEET 1 1576 1220
WIRE -320 -1200 -848 -1200
WIRE -112 -1200 -320 -1200
WIRE 480 -1168 320 -1168
WIRE -960 -1120 -1008 -1120
WIRE -848 -1120 -848 -1200
WIRE -848 -1120 -880 -1120
WIRE -320 -1120 -320 -1200
WIRE -112 -1120 -112 -1200
WIRE 320 -1072 320 -1168
WIRE -848 -1056 -848 -1120
WIRE -1008 -1040 -1008 -1120
WIRE 416 -1024 368 -1024
WIRE 480 -1024 480 -1168
WIRE -896 -1008 -960 -1008
WIRE -320 -1008 -320 -1056
WIRE -240 -1008 -320 -1008
WIRE 224 -1008 -176 -1008
WIRE 272 -1008 224 -1008
WIRE -960 -992 -960 -1008
WIRE -112 -992 -112 -1056
WIRE 128 -992 -112 -992
WIRE 128 -944 128 -992
WIRE -320 -928 -320 -1008
WIRE -112 -928 -112 -992
WIRE 416 -928 416 -1024
WIRE 480 -928 480 -944
WIRE 480 -928 416 -928
WIRE 480 -912 480 -928
WIRE 768 -896 560 -896
WIRE -880 -880 -880 -960
WIRE -768 -880 -880 -880
WIRE -688 -880 -768 -880
WIRE -480 -880 -624 -880
WIRE -368 -880 -480 -880
WIRE 64 -880 -64 -880
WIRE -880 -864 -880 -880
WIRE -768 -848 -768 -880
WIRE -480 -848 -480 -880
WIRE 64 -848 64 -880
WIRE 560 -848 560 -896
WIRE 768 -848 768 -896
WIRE 224 -816 224 -944
WIRE 480 -816 480 -832
WIRE 480 -800 480 -816
WIRE -880 -784 -880 -800
WIRE -352 -768 -352 -832
WIRE -208 -768 -352 -768
WIRE -80 -768 -80 -832
WIRE -80 -768 -208 -768
WIRE -768 -736 -768 -784
WIRE -208 -720 -208 -768
WIRE 560 -720 560 -768
WIRE 704 -720 560 -720
WIRE 768 -720 768 -784
WIRE 768 -720 704 -720
WIRE 480 -704 480 -720
WIRE 480 -704 416 -704
WIRE -880 -688 -880 -720
WIRE -880 -688 -896 -688
WIRE -832 -688 -880 -688
WIRE 224 -688 224 -816
WIRE 480 -688 480 -704
WIRE -320 -672 -448 -672
WIRE -272 -672 -320 -672
WIRE -896 -656 -896 -688
WIRE -448 -656 -448 -672
WIRE 128 -624 128 -880
WIRE 224 -624 128 -624
WIRE 272 -624 224 -624
WIRE 416 -608 416 -704
WIRE 416 -608 368 -608
WIRE -320 -576 -320 -672
WIRE -208 -576 -208 -624
WIRE -896 -560 -896 -592
WIRE -960 -496 -960 -928
WIRE -768 -496 -768 -640
WIRE -768 -496 -960 -496
WIRE -768 -464 -768 -496
WIRE 320 -464 320 -560
WIRE 480 -464 480 -608
WIRE 480 -464 320 -464
WIRE -320 -448 -320 -512
WIRE -208 -448 -208 -512
WIRE -208 -448 -320 -448
WIRE -992 -416 -1152 -416
WIRE -912 -416 -992 -416
WIRE -816 -416 -848 -416
WIRE -208 -400 -208 -448
WIRE -992 -368 -992 -416
WIRE -1152 -352 -1152 -416
WIRE -800 -320 -800 -368
WIRE -208 -288 -208 -320
WIRE -1152 -208 -1152 -272
WIRE -992 -208 -992 -304
WIRE -800 -208 -800 -256
FLAG -208 -288 0
FLAG -480 -784 0
FLAG 64 -784 0
FLAG -448 -592 0
FLAG -1152 -208 0
FLAG -896 -560 0
FLAG -1008 -1040 0
FLAG -992 -208 0
FLAG -800 -208 0
FLAG 304 -816 0
FLAG 288 -960 0
FLAG 288 -672 0
FLAG 704 -720 0
FLAG 400 -816 0
SYMBOL npn -256 -672 R0
SYMATTR InstName Q1
SYMATTR Value 2N3904
SYMBOL r -208 -576 R90
SYMATTR InstName R1
SYMATTR Value 900
SYMBOL r -320 -576 R90
SYMATTR InstName R2
SYMATTR Value 750k
SYMBOL r -448 -592 R270
SYMATTR InstName R3
SYMATTR Value 250k
SYMBOL voltage -208 -416 R0
SYMATTR InstName V3
SYMATTR Value -20
SYMBOL r -480 -848 R90
SYMATTR InstName R4
SYMATTR Value 220k
SYMBOL r 64 -848 R90
SYMATTR InstName R5
SYMATTR Value 220k
SYMBOL r -320 -1120 R90
SYMATTR InstName R6
SYMATTR Value 22k
SYMBOL r -112 -1120 R90
SYMATTR InstName R7
SYMATTR Value 22k
SYMBOL 12AU7 -320 -880 R0
SYMATTR InstName U1
SYMBOL 12AU7 -112 -880 M0
SYMATTR InstName U2
SYMBOL voltage -864 -1120 R90
WINDOW 0 -32 56 VBottom 2
WINDOW 3 32 56 VTop 2
SYMATTR InstName V4
SYMATTR Value 300
SYMBOL voltage -1152 -368 R0
WINDOW 3 11 113 Left 2
SYMATTR Value SINE(0 1.1 1k)
SYMATTR InstName V5
SYMATTR Value2 AC 1
SYMBOL r -848 -416 R180
SYMATTR InstName R10
SYMATTR Value 1k
SYMBOL r -992 -304 R270
SYMATTR InstName R11
SYMATTR Value 470k
SYMBOL pnp -816 -688 M180
SYMATTR InstName Q2
SYMATTR Value 2N2907
SYMBOL LED -896 -784 R0
SYMATTR InstName D1
SYMATTR Value NSCW100
SYMATTR Description Diode
SYMATTR Type diode
SYMBOL r -896 -656 R90
SYMATTR InstName R12
SYMATTR Value 120k
SYMBOL r -768 -848 R90
SYMATTR InstName R13
SYMATTR Value 100
SYMBOL LED -896 -864 R0
SYMATTR InstName D2
SYMATTR Value NSCW100
SYMATTR Description Diode
SYMATTR Type diode
SYMBOL r -960 -992 R90
SYMATTR InstName R15
SYMATTR Value 1k
SYMBOL r -800 -256 R270
SYMATTR InstName R16
SYMATTR Value 800
SYMBOL 12AU7 -848 -1008 R0
SYMATTR InstName U3
SYMBOL 12AU7 -768 -416 R0
SYMATTR InstName U4
SYMBOL cap -624 -896 R90
WINDOW 0 0 32 VBottom 2
WINDOW 3 32 32 VTop 2
SYMATTR InstName C3
SYMATTR Value 220n
SYMBOL EL34 320 -1024 R0
SYMATTR InstName U5
SYMBOL EL34 320 -608 M180
SYMATTR InstName U6
SYMBOL ind2 464 -816 M180
WINDOW 0 36 80 Left 2
WINDOW 3 36 40 Left 2
SYMATTR InstName L1
SYMATTR Value 3.8182
SYMATTR Type ind
SYMBOL ind2 464 -928 M180
WINDOW 0 36 80 Left 2
WINDOW 3 36 40 Left 2
SYMATTR InstName L2
SYMATTR Value 5.0614
SYMATTR Type ind
SYMBOL ind2 464 -704 M180
WINDOW 0 36 80 Left 2
WINDOW 3 36 40 Left 2
SYMATTR InstName L3
SYMATTR Value 3.8182
SYMATTR Type ind
SYMBOL ind2 464 -592 M180
WINDOW 0 36 80 Left 2
WINDOW 3 36 40 Left 2
SYMATTR InstName L4
SYMATTR Value 5.0614
SYMATTR Type ind
SYMBOL ind2 576 -752 R180
WINDOW 0 -33 65 Left 2
WINDOW 3 -20 29 Left 2
SYMATTR InstName L5
SYMATTR Value 0.06458
SYMATTR Type ind
SYMBOL cap -176 -1024 R90
WINDOW 0 0 32 VBottom 2
WINDOW 3 32 32 VTop 2
SYMATTR InstName C1
SYMATTR Value 220n
SYMBOL cap 144 -880 R180
WINDOW 0 24 56 Left 2
WINDOW 3 24 8 Left 2
SYMATTR InstName C2
SYMATTR Value 220n
SYMBOL r 224 -1008 R90
SYMATTR InstName R8
SYMATTR Value 220k
SYMBOL r 224 -688 R90
SYMATTR InstName R9
SYMATTR Value 220k
SYMBOL voltage 320 -816 R90
WINDOW 0 -32 56 VBottom 2
WINDOW 3 32 56 VTop 2
SYMATTR InstName V1
SYMATTR Value 37
SYMBOL r 768 -848 R90
SYMATTR InstName R14
SYMATTR Value 8
SYMBOL voltage 496 -816 R90
WINDOW 0 -32 56 VBottom 2
WINDOW 3 32 56 VTop 2
SYMATTR InstName V2
SYMATTR Value 420
TEXT -1240 -1528 Left 2 !.tran 0 1 0 100u
TEXT -1240 -1560 Left 2 !.four 1k 9 v(n008)
TEXT -1264 -1472 Left 2 ;.ac dec 100 0.1 100k
TEXT 568 -688 Left 2 !k L1 L2 L3 L4 L5 1
