Version 4
SHEET 1 1636 1360
WIRE 400 -256 -128 -256
WIRE 608 -256 400 -256
WIRE 1200 -224 1040 -224
WIRE -240 -176 -288 -176
WIRE -128 -176 -128 -256
WIRE -128 -176 -160 -176
WIRE 400 -176 400 -256
WIRE 608 -176 608 -256
WIRE 1040 -128 1040 -224
WIRE -128 -112 -128 -176
WIRE -288 -96 -288 -176
WIRE 1136 -80 1088 -80
WIRE 1200 -80 1200 -224
WIRE -176 -64 -240 -64
WIRE 400 -64 400 -112
WIRE 480 -64 400 -64
WIRE 944 -64 544 -64
WIRE 992 -64 944 -64
WIRE -240 -48 -240 -64
WIRE 608 -48 608 -112
WIRE 848 -48 608 -48
WIRE 848 0 848 -48
WIRE 400 16 400 -64
WIRE 608 16 608 -48
WIRE 1136 16 1136 -80
WIRE 1200 16 1200 0
WIRE 1200 16 1136 16
WIRE 1200 32 1200 16
WIRE 1488 48 1280 48
WIRE -160 64 -160 -16
WIRE -48 64 -160 64
WIRE 32 64 -48 64
WIRE 240 64 96 64
WIRE 352 64 240 64
WIRE 704 64 656 64
WIRE -48 96 -48 64
WIRE 240 96 240 64
WIRE 704 96 704 64
WIRE 1280 96 1280 48
WIRE 1488 96 1488 48
WIRE 944 128 944 0
WIRE 1200 128 1200 112
WIRE 1200 144 1200 128
WIRE -160 160 -160 64
WIRE 368 176 368 112
WIRE 512 176 368 176
WIRE 640 176 640 112
WIRE 640 176 512 176
WIRE -48 208 -48 160
WIRE 1280 224 1280 176
WIRE 1488 224 1488 160
WIRE 1488 224 1280 224
WIRE 1200 240 1200 224
WIRE 1200 240 1136 240
WIRE -160 256 -160 224
WIRE -160 256 -176 256
WIRE -112 256 -160 256
WIRE 944 256 944 128
WIRE 1200 256 1200 240
WIRE -176 288 -176 256
WIRE 512 304 512 176
WIRE 848 320 848 64
WIRE 944 320 848 320
WIRE 992 320 944 320
WIRE 1136 336 1136 240
WIRE 1136 336 1088 336
WIRE 400 352 272 352
WIRE 448 352 400 352
WIRE 272 368 272 352
WIRE -176 384 -176 352
WIRE -240 448 -240 16
WIRE -48 448 -48 304
WIRE -48 448 -240 448
WIRE 400 448 400 352
WIRE 512 448 512 400
WIRE -48 480 -48 448
WIRE 1040 480 1040 384
WIRE 1200 480 1200 336
WIRE 1200 480 1040 480
WIRE -272 528 -432 528
WIRE -192 528 -272 528
WIRE -96 528 -128 528
WIRE -272 576 -272 528
WIRE 400 576 400 512
WIRE 512 576 512 512
WIRE 512 576 400 576
WIRE -432 592 -432 528
WIRE -80 624 -80 576
WIRE 512 624 512 576
WIRE -432 736 -432 672
WIRE -272 736 -272 640
WIRE -80 736 -80 688
WIRE 512 736 512 704
FLAG 512 736 0
FLAG 240 160 0
FLAG 704 160 0
FLAG 272 432 0
FLAG -432 736 0
FLAG -176 384 0
FLAG -288 -96 0
FLAG -272 736 0
FLAG 1024 128 0
FLAG 1008 -16 0
FLAG 1008 272 0
FLAG 1120 128 0
FLAG 1488 224 0
FLAG -80 736 0
SYMBOL npn 464 352 R0
SYMATTR InstName Q1
SYMATTR Value 2N3904
SYMBOL r 512 448 R90
SYMATTR InstName R1
SYMATTR Value 3285
SYMBOL r 400 448 R90
SYMATTR InstName R2
SYMATTR Value 303270
SYMBOL r 272 432 R270
SYMATTR InstName R3
SYMATTR Value 383512
SYMBOL voltage 512 608 R0
SYMATTR InstName V1
SYMATTR Value -28.89
SYMBOL r 240 96 R90
SYMATTR InstName R4
SYMATTR Value 658974
SYMBOL r 704 96 R90
SYMATTR InstName R5
SYMATTR Value 658974
SYMBOL r 400 -176 R90
SYMATTR InstName R6
SYMATTR Value 42455
SYMBOL r 608 -176 R90
SYMATTR InstName R7
SYMATTR Value 42455
SYMBOL 12AU7 400 64 R0
SYMATTR InstName U1
SYMBOL 12AU7 608 64 M0
SYMATTR InstName U2
SYMBOL voltage -144 -176 R90
WINDOW 0 -32 56 VBottom 2
WINDOW 3 32 56 VTop 2
SYMATTR InstName V2
SYMATTR Value 256.74
SYMBOL voltage -432 576 R0
WINDOW 3 11 113 Left 2
SYMATTR Value SINE(0 1.1 1k)
SYMATTR InstName V3
SYMATTR Value2 AC 1
SYMBOL r -128 528 R180
SYMATTR InstName R8
SYMATTR Value 275
SYMBOL r -272 640 R270
SYMATTR InstName R9
SYMATTR Value 475292
SYMBOL pnp -96 256 M180
SYMATTR InstName Q2
SYMATTR Value 2N2907
SYMBOL LED -176 160 R0
SYMATTR InstName D1
SYMATTR Value NSCW100
SYMATTR Description Diode
SYMATTR Type diode
SYMBOL r -176 288 R90
SYMATTR InstName R10
SYMATTR Value 472253
SYMBOL r -48 96 R90
SYMATTR InstName R11
SYMATTR Value 3936
SYMBOL r -240 -48 R90
SYMATTR InstName R12
SYMATTR Value 4503
SYMBOL r -80 688 R270
SYMATTR InstName R13
SYMATTR Value 2689
SYMBOL 12AU7 -128 -64 R0
SYMATTR InstName U3
SYMBOL 12AU7 -48 528 R0
SYMATTR InstName U4
SYMBOL cap 96 48 R90
WINDOW 0 0 32 VBottom 2
WINDOW 3 32 32 VTop 2
SYMATTR InstName C1
SYMATTR Value 3205n
SYMBOL EL34 1040 -80 R0
SYMATTR InstName U5
SYMBOL EL34 1040 336 M180
SYMATTR InstName U6
SYMBOL ind2 1184 128 M180
WINDOW 0 36 80 Left 2
WINDOW 3 36 40 Left 2
SYMATTR InstName L1
SYMATTR Value 3.8182
SYMATTR Type ind
SYMBOL ind2 1184 16 M180
WINDOW 0 36 80 Left 2
WINDOW 3 36 40 Left 2
SYMATTR InstName L2
SYMATTR Value 5.0614
SYMATTR Type ind
SYMBOL ind2 1184 240 M180
WINDOW 0 36 80 Left 2
WINDOW 3 36 40 Left 2
SYMATTR InstName L3
SYMATTR Value 3.8182
SYMATTR Type ind
SYMBOL ind2 1184 352 M180
WINDOW 0 36 80 Left 2
WINDOW 3 36 40 Left 2
SYMATTR InstName L4
SYMATTR Value 5.0614
SYMATTR Type ind
SYMBOL ind2 1296 80 M0
SYMATTR InstName L5
SYMATTR Value 0.06458
SYMATTR Type ind
SYMBOL cap 544 -80 R90
WINDOW 0 0 32 VBottom 2
WINDOW 3 32 32 VTop 2
SYMATTR InstName C2
SYMATTR Value 1622n
SYMBOL cap 864 64 R180
WINDOW 0 24 56 Left 2
WINDOW 3 24 8 Left 2
SYMATTR InstName C3
SYMATTR Value 1622n
SYMBOL r 944 -64 R90
SYMATTR InstName R14
SYMATTR Value 508106
SYMBOL r 944 256 R90
SYMATTR InstName R15
SYMATTR Value 508106
SYMBOL voltage 928 128 R270
WINDOW 0 32 56 VTop 2
WINDOW 3 -32 56 VBottom 2
SYMATTR InstName V4
SYMATTR Value -31.03
SYMBOL r 1488 96 R90
SYMATTR InstName R16
SYMATTR Value 8
SYMBOL voltage 1216 128 R90
WINDOW 0 -32 56 VBottom 2
WINDOW 3 32 56 VTop 2
SYMATTR InstName V5
SYMATTR Value 468.63
TEXT 1288 256 Left 2 !k L1 L2 L3 L4 L5 1
TEXT -40 1344 Left 2 ;.tran 0 1 0 100u
TEXT -40 1320 Left 2 !.four 1k 9 v(n008)
TEXT -40 1272 Left 2 ;.ac dec 100 0.1 100k
TEXT 344 1296 Left 2 ;O balanço das correntes pode ser feito com pot nos Rl do par
TEXT 344 1320 Left 2 ;Aqui pode escolher 1, 2, 4, 8, 16, 32, 64 \nque eu acerto na encomenda do trafo
TEXT 344 1272 Left 2 ;V3 min é o valor de V1
TEXT -40 1296 Left 2 !.tran 0 1000ms 998ms 10u
