Version 4
SHEET 1 1648 792
WIRE 912 240 784 240
WIRE 784 272 784 240
WIRE 112 320 112 240
WIRE 912 336 912 240
WIRE -80 368 -288 368
WIRE 16 368 -16 368
WIRE 64 368 16 368
WIRE 352 368 304 368
WIRE 528 368 480 368
WIRE -288 384 -288 368
WIRE 784 384 784 336
WIRE 864 384 784 384
WIRE -288 400 -288 384
WIRE 16 416 16 368
WIRE 416 416 416 368
WIRE 784 464 784 384
WIRE 80 480 80 416
WIRE 240 480 240 368
WIRE 240 480 80 480
WIRE 416 512 416 480
WIRE 640 512 416 512
WIRE 736 512 704 512
WIRE 880 512 880 432
WIRE 944 512 880 512
WIRE 80 528 80 480
WIRE 240 528 240 480
WIRE 416 544 416 512
WIRE 592 592 592 368
WIRE 848 592 592 592
WIRE 944 592 944 512
WIRE 944 592 912 592
WIRE 16 608 16 480
WIRE 80 608 80 592
WIRE 80 608 16 608
WIRE 704 608 704 512
WIRE 848 656 848 592
WIRE 976 656 848 656
WIRE 1072 656 1040 656
WIRE 1088 656 1072 656
WIRE 80 672 80 608
WIRE 752 672 752 560
WIRE 816 672 752 672
WIRE 240 688 240 592
WIRE 352 688 240 688
WIRE 416 688 416 608
WIRE 592 688 592 656
WIRE 592 688 480 688
WIRE 752 704 752 672
WIRE 816 704 816 672
WIRE 944 704 944 592
WIRE 1088 704 1088 656
WIRE 352 752 352 688
WIRE 384 752 352 752
WIRE 480 752 480 688
WIRE 480 752 448 752
FLAG 112 160 0
FLAG 784 160 0
FLAG 80 736 0
FLAG 704 672 0
FLAG 752 768 0
FLAG 816 768 0
FLAG 944 768 0
FLAG 1088 768 0
FLAG 1072 656 out
FLAG -288 480 0
FLAG -288 384 in
SYMBOL misc/VacuumTubes/NormanKoren/12AX7 112 368 R0
SYMATTR InstName U1
SYMBOL cap -16 352 R90
WINDOW 0 0 32 VBottom 2
WINDOW 3 32 32 VTop 2
SYMATTR InstName C1
SYMATTR Value 100n
SYMBOL r 16 416 R90
SYMATTR InstName R1
SYMATTR Value 470k
SYMBOL r 80 528 R90
SYMATTR InstName R2
SYMATTR Value 3.9k
SYMBOL r 80 672 R90
SYMATTR InstName R3
SYMATTR Value 33k
SYMBOL cap 304 352 R90
WINDOW 0 0 32 VBottom 2
WINDOW 3 32 32 VTop 2
SYMATTR InstName C2
SYMATTR Value 680p
SYMBOL cap 592 352 R90
WINDOW 0 0 32 VBottom 2
WINDOW 3 32 32 VTop 2
SYMATTR InstName C3
SYMATTR Value 680p
SYMBOL r 416 368 R180
SYMATTR InstName R4
SYMATTR Value 50k
SYMBOL r 480 368 R180
SYMATTR InstName R5
SYMATTR Value 50k
SYMBOL voltage 112 256 R180
WINDOW 0 24 96 Left 2
WINDOW 3 24 16 Left 2
SYMATTR InstName V1
SYMATTR Value 250
SYMBOL r 416 416 R90
SYMATTR InstName R6
SYMATTR Value 150k
SYMBOL r 416 544 R90
SYMATTR InstName R7
SYMATTR Value 300k
SYMBOL r 416 688 R180
SYMATTR InstName R8
SYMATTR Value 50k
SYMBOL r 480 688 R180
SYMATTR InstName R9
SYMATTR Value 50k
SYMBOL cap 448 736 R90
WINDOW 0 0 32 VBottom 2
WINDOW 3 32 32 VTop 2
SYMATTR InstName C4
SYMATTR Value 0.01µ
SYMBOL r 240 528 R90
SYMATTR InstName R10
SYMATTR Value 22k
SYMBOL r 592 592 R90
SYMATTR InstName R11
SYMATTR Value 22k
SYMBOL misc/VacuumTubes/NormanKoren/12AX7 784 512 R0
SYMATTR InstName U2
SYMBOL cap 704 496 R90
WINDOW 0 0 32 VBottom 2
WINDOW 3 32 32 VTop 2
SYMATTR InstName C5
SYMATTR Value 100n
SYMBOL r 704 608 R90
SYMATTR InstName R12
SYMATTR Value 1Meg
SYMBOL r 752 704 R90
SYMATTR InstName R13
SYMATTR Value 3.9k
SYMBOL cap 832 768 R180
WINDOW 0 24 56 Left 2
WINDOW 3 24 8 Left 2
SYMATTR InstName C6
SYMATTR Value 100µ
SYMBOL misc/VacuumTubes/NormanKoren/12AX7 912 384 R0
SYMATTR InstName U3
SYMBOL r 784 272 R90
SYMATTR InstName R14
SYMATTR Value 750k
SYMBOL r 944 704 R90
SYMATTR InstName R15
SYMATTR Value 33k
SYMBOL cap 912 576 R90
WINDOW 0 0 32 VBottom 2
WINDOW 3 32 32 VTop 2
SYMATTR InstName C7
SYMATTR Value 22µ
SYMBOL r 1088 704 R90
SYMATTR InstName R16
SYMATTR Value 470k
SYMBOL cap 1040 640 R90
WINDOW 0 0 32 VBottom 2
WINDOW 3 32 32 VTop 2
SYMATTR InstName C8
SYMATTR Value 100n
SYMBOL voltage 784 256 R180
WINDOW 0 24 96 Left 2
WINDOW 3 24 16 Left 2
SYMATTR InstName V2
SYMATTR Value 250
SYMBOL voltage -288 384 R0
WINDOW 3 24 38 Left 2
SYMATTR Value SINE(0 50m 1k)
SYMATTR InstName V3
SYMATTR Value2 AC 50m
TEXT 1088 176 Left 2 ;.tran 0 35 2
TEXT 1088 136 Left 2 ;.four 1k out
TEXT 1104 248 Left 2 ;.tran 0 1.02 1 10u
TEXT 1112 296 Left 2 ;.ac oct 10 10 25k
TEXT 1464 416 Left 2 !.four 1k 9 v(out)
TEXT 1128 352 Left 2 !.tran 0 20.1m 0.9m 100u
