Version 4
SHEET 1 1668 1072
WIRE 1328 128 1328 80
WIRE 1360 128 1328 128
WIRE 1440 128 1424 128
WIRE 1488 128 1440 128
WIRE 1552 128 1488 128
WIRE 1552 192 1552 128
WIRE 1328 224 1328 208
WIRE 1328 224 1152 224
WIRE 1152 304 1152 224
WIRE 1440 304 1440 208
WIRE -144 336 -144 288
WIRE -16 336 -144 336
WIRE 32 336 -16 336
WIRE 144 336 96 336
WIRE 1104 352 1008 352
WIRE -144 384 -144 336
WIRE 736 400 576 400
WIRE 416 416 416 288
WIRE -512 432 -752 432
WIRE -448 432 -512 432
WIRE -320 432 -384 432
WIRE -192 432 -320 432
WIRE -752 448 -752 432
WIRE 1120 448 1120 400
WIRE 1168 448 1120 448
WIRE -16 464 -16 336
WIRE 32 464 -16 464
WIRE 144 464 144 336
WIRE 144 464 96 464
WIRE 1120 464 1120 448
WIRE 1168 464 1168 448
WIRE -16 496 -16 464
WIRE -512 512 -512 432
WIRE -320 512 -320 432
WIRE 416 512 416 480
WIRE 480 512 416 512
WIRE 576 512 576 400
WIRE 576 512 544 512
WIRE 656 512 576 512
WIRE 736 512 736 400
WIRE 736 512 720 512
WIRE 752 512 736 512
WIRE 848 512 816 512
WIRE 896 512 848 512
WIRE 1008 512 1008 352
WIRE 1008 512 960 512
WIRE -176 528 -176 480
WIRE -112 528 -176 528
WIRE 288 528 144 528
WIRE 416 544 416 512
WIRE 1120 544 1120 528
WIRE 1168 544 1168 528
WIRE -176 560 -176 528
WIRE 1008 560 1008 512
WIRE 368 592 288 592
WIRE 576 592 576 512
WIRE -16 608 -16 560
WIRE 32 608 -16 608
WIRE 144 608 144 592
WIRE 144 608 96 608
WIRE 224 608 144 608
WIRE 848 608 848 512
WIRE 224 672 224 608
WIRE 224 672 144 672
WIRE -512 688 -512 576
WIRE -320 688 -320 576
WIRE 384 688 384 640
WIRE 432 688 384 688
WIRE 1008 704 1008 624
WIRE 432 736 432 688
WIRE 144 752 144 736
WIRE 576 752 576 656
WIRE 848 752 848 672
WIRE -16 816 -16 608
WIRE 32 816 -16 816
WIRE 144 816 96 816
WIRE 432 832 432 800
WIRE -112 992 -112 528
WIRE -64 992 -112 992
WIRE 1488 992 1488 128
WIRE 1488 992 0 992
FLAG -144 144 0
FLAG -752 528 0
FLAG 384 752 0
FLAG -512 688 0
FLAG 416 208 0
FLAG 576 752 0
FLAG 848 752 0
FLAG 1552 256 0
FLAG 1328 0 0
FLAG 1552 128 out
FLAG 1008 704 0
FLAG 1168 544 0
FLAG 1120 544 0
FLAG -752 432 in
FLAG 1440 304 0
FLAG -176 624 0
FLAG -320 688 0
FLAG 432 832 0
FLAG 144 880 0
FLAG 288 656 0
SYMBOL r -512 512 R90
SYMATTR InstName R1
SYMATTR Value 1Meg
SYMBOL r -144 224 R90
SYMATTR InstName R2
SYMATTR Value 100k
SYMBOL r -384 432 R180
SYMATTR InstName R3
SYMATTR Value 33k
SYMBOL voltage -144 240 R180
WINDOW 0 24 96 Left 2
WINDOW 3 24 16 Left 2
SYMATTR InstName V1
SYMATTR Value 200
SYMBOL voltage -752 432 R0
WINDOW 3 24 38 Left 2
SYMATTR Value SINE(0 50m 1k)
SYMATTR InstName V2
SYMATTR Value2 AC 50m
SYMBOL r 1120 464 R90
SYMATTR InstName R4
SYMATTR Value 470
SYMBOL r -176 560 R90
SYMATTR InstName R5
SYMATTR Value 1500
SYMBOL r 416 416 R90
SYMATTR InstName R6
SYMATTR Value 100k
SYMBOL voltage 416 304 R180
WINDOW 0 24 96 Left 2
WINDOW 3 24 16 Left 2
SYMATTR InstName V3
SYMATTR Value 250
SYMBOL cap 544 496 R90
WINDOW 0 0 32 VBottom 2
WINDOW 3 32 32 VTop 2
SYMATTR InstName C1
SYMATTR Value 5n
SYMBOL r 576 592 R90
SYMATTR InstName R7
SYMATTR Value 500k
SYMBOL r 384 688 R90
SYMATTR InstName R8
SYMATTR Value 1500
SYMBOL r 656 512 R0
SYMATTR InstName R9
SYMATTR Value 47k
SYMBOL r 752 512 R0
SYMATTR InstName R10
SYMATTR Value 47k
SYMBOL cap 832 608 R0
SYMATTR InstName C2
SYMATTR Value 500p
SYMBOL r 1008 560 R90
SYMATTR InstName R11
SYMATTR Value 1Meg
SYMBOL ind2 1312 224 M180
WINDOW 0 -37 85 Left 2
WINDOW 3 -52 38 Left 2
SYMATTR InstName L1
SYMATTR Value 107
SYMATTR Type ind
SYMATTR SpiceLine Rser=337 Cpar=100p
SYMBOL ind2 1456 224 R180
WINDOW 0 36 80 Left 2
WINDOW 3 36 40 Left 2
SYMATTR InstName L2
SYMATTR Value 47.6m
SYMATTR Type ind
SYMATTR SpiceLine Rser=792m Cpar=100p
SYMBOL r 1552 192 R90
SYMATTR InstName R12
SYMATTR Value 10k
SYMBOL voltage 1328 96 R180
WINDOW 0 24 96 Left 2
WINDOW 3 24 16 Left 2
SYMATTR InstName V4
SYMATTR Value 300
SYMBOL misc/VacuumTubes/NormanKoren/12AX7 -144 432 R0
SYMATTR InstName U1
SYMBOL misc/VacuumTubes/NormanKoren/12AU7 1152 352 R0
SYMATTR InstName U2
SYMBOL misc/VacuumTubes/NormanKoren/12AX7 416 592 R0
SYMATTR InstName U3
SYMBOL cap 1424 112 R90
WINDOW 0 0 32 VBottom 2
WINDOW 3 32 32 VTop 2
SYMATTR InstName C3
SYMATTR Value 50p
SYMBOL cap 1152 464 R0
SYMATTR InstName C4
SYMATTR Value 47µ
SYMBOL cap -336 512 R0
SYMATTR InstName C5
SYMATTR Value 0
SYMBOL cap 960 496 R90
WINDOW 0 0 32 VBottom 2
WINDOW 3 32 32 VTop 2
SYMATTR InstName C6
SYMATTR Value 5n
SYMBOL cap 416 736 R0
SYMATTR InstName C7
SYMATTR Value 10µ
SYMBOL r -64 992 R0
SYMATTR InstName R16
SYMATTR Value 220k
SYMBOL cap 96 320 R90
WINDOW 0 0 32 VBottom 2
WINDOW 3 32 32 VTop 2
SYMATTR InstName C8
SYMATTR Value 470p
SYMBOL cap 96 448 R90
WINDOW 0 6 71 VBottom 2
WINDOW 3 21 69 VTop 2
SYMATTR InstName C9
SYMATTR Value 470p
SYMBOL cap 96 592 R90
WINDOW 0 14 70 VBottom 2
WINDOW 3 22 71 VTop 2
SYMATTR InstName C10
SYMATTR Value 22n
SYMBOL cap 96 800 R90
WINDOW 0 4 63 VBottom 2
WINDOW 3 20 64 VTop 2
SYMATTR InstName C11
SYMATTR Value 22n
SYMBOL r 144 464 R90
SYMATTR InstName R15
SYMATTR Value 0
SYMBOL r 144 528 R90
SYMATTR InstName R17
SYMATTR Value 250k
SYMBOL r 144 608 R90
SYMATTR InstName R18
SYMATTR Value 0
SYMBOL r 144 672 R90
SYMATTR InstName R19
SYMATTR Value 1Meg
SYMBOL r 144 752 R90
SYMATTR InstName R20
SYMATTR Value 0
SYMBOL r 144 816 R90
SYMATTR InstName R21
SYMATTR Value 25k
SYMBOL r -16 496 R90
SYMATTR InstName R13
SYMATTR Value 100k
SYMBOL r 288 528 R90
SYMATTR InstName R14
SYMATTR Value 0
SYMBOL r 288 592 R90
SYMATTR InstName R22
SYMATTR Value 1Meg
TEXT 400 -208 Left 2 ;.tran 0 35 2
TEXT 400 -248 Left 2 ;.four 1k out
TEXT -432 -96 Left 2 ;.wave sample9(novo_G=4,trafo,cnfb,menos_ag).wav 16 44100 out
TEXT -432 -160 Left 2 ;wavefile=teste_atenuado.wav\n*escrever na fonte
TEXT 416 -136 Left 2 ;.tran 0 1.02 1 10u
TEXT 424 -88 Left 2 ;.ac oct 10 10 25k
TEXT 208 48 Left 2 ;O sample6 é este mesmo circuito sem NFB
TEXT 1480 72 Left 2 !k1 L1 L2 0.9998
TEXT 776 32 Left 2 !.four 1k 9 v(out)
TEXT 440 -32 Left 2 !.tran 0 200.1m 0.9m 100u
TEXT -128 -8 Left 2 ;.ac dec 100 10 3000k
