Version 4
SHEET 1 1104 680
WIRE 848 -256 848 -304
WIRE 1008 -256 960 -256
WIRE 1072 -256 1008 -256
WIRE 1072 -192 1072 -256
WIRE 848 -160 848 -176
WIRE 848 -160 736 -160
WIRE 960 -160 960 -176
WIRE -464 -32 -464 -80
WIRE -400 -32 -464 -32
WIRE -240 -32 -336 -32
WIRE -128 -16 -128 -144
WIRE 416 -16 192 -16
WIRE -464 16 -464 -32
WIRE 736 16 736 -160
WIRE -688 64 -880 64
WIRE -640 64 -688 64
WIRE -608 64 -640 64
WIRE -512 64 -544 64
WIRE -240 64 -240 32
WIRE 416 64 416 48
WIRE 496 64 416 64
WIRE 592 64 560 64
WIRE 688 64 592 64
WIRE -880 80 -880 64
WIRE -128 80 -128 48
WIRE -64 80 -128 80
WIRE 32 80 0 80
WIRE 112 80 32 80
WIRE 192 80 192 -16
WIRE 192 80 176 80
WIRE 208 80 192 80
WIRE 304 80 272 80
WIRE 416 96 416 64
WIRE -128 112 -128 80
WIRE 592 112 592 64
WIRE -240 128 -240 112
WIRE -640 144 -640 64
WIRE -240 160 -240 128
WIRE -176 160 -240 160
WIRE 32 160 32 80
WIRE -336 176 -336 -32
WIRE 304 176 304 80
WIRE 704 176 704 112
WIRE -496 192 -496 112
WIRE 416 208 416 160
WIRE -336 256 -336 240
WIRE -240 256 -240 160
WIRE -240 256 -336 256
WIRE -160 256 -160 208
WIRE 592 256 592 176
WIRE -336 272 -336 256
WIRE -640 320 -640 208
WIRE -496 320 -496 256
WIRE 32 320 32 224
WIRE 304 320 304 240
WIRE 704 384 704 240
WIRE -688 592 -688 64
WIRE -240 592 -688 592
WIRE 1008 592 1008 -256
WIRE 1008 592 -176 592
FLAG -464 -224 0
FLAG -880 160 0
FLAG -240 656 0
FLAG -240 -160 0
FLAG -160 320 0
FLAG -496 320 0
FLAG -640 320 0
FLAG -336 336 0
FLAG -128 -224 0
FLAG 32 320 0
FLAG 304 320 0
FLAG 416 208 0
FLAG 704 384 0
FLAG 960 -160 0
FLAG 1072 -128 0
FLAG 848 -384 0
FLAG 1072 -256 out
FLAG 848 -96 0
FLAG 592 256 0
SYMBOL r -640 144 R90
SYMATTR InstName R1
SYMATTR Value 1Meg
SYMBOL r -464 -144 R90
SYMATTR InstName R2
SYMATTR Value 100k
SYMBOL r -544 64 R180
SYMATTR InstName R3
SYMATTR Value 33k
SYMBOL cap -336 -48 R90
WINDOW 0 0 32 VBottom 2
WINDOW 3 32 32 VTop 2
SYMATTR InstName C1
SYMATTR Value 5n
SYMBOL voltage -464 -128 R180
WINDOW 0 24 96 Left 2
WINDOW 3 24 16 Left 2
SYMATTR InstName V1
SYMATTR Value 300
SYMBOL voltage -880 64 R0
WINDOW 3 24 38 Left 2
SYMATTR Value SINE(0 50m 1k)
SYMATTR InstName V2
SYMATTR Value2 AC 50m
SYMBOL r 704 176 R90
SYMATTR InstName R4
SYMATTR Value 470
SYMBOL r -496 192 R90
SYMATTR InstName R5
SYMATTR Value 1500
SYMBOL r -240 592 R0
SYMATTR InstName rfb1
SYMATTR Value 50k
SYMBOL r -240 592 R90
SYMATTR InstName R6
SYMATTR Value 5k
SYMBOL r -336 176 R90
SYMATTR InstName R7
SYMATTR Value 600k
SYMBOL cap -224 128 R180
WINDOW 0 24 56 Left 2
WINDOW 3 24 8 Left 2
SYMATTR InstName C2
SYMATTR Value 500p
SYMBOL r -240 -96 R90
SYMATTR InstName R8
SYMATTR Value 500k
SYMBOL cap -224 -96 R180
WINDOW 0 24 56 Left 2
WINDOW 3 24 8 Left 2
SYMATTR InstName C3
SYMATTR Value 5n
SYMBOL r -240 -32 R90
SYMATTR InstName R9
SYMATTR Value 500k
SYMBOL r -336 272 R90
SYMATTR InstName R10
SYMATTR Value 400k
SYMBOL r -128 -16 R90
SYMATTR InstName R11
SYMATTR Value 100k
SYMBOL voltage -128 -128 R180
WINDOW 0 24 96 Left 2
WINDOW 3 24 16 Left 2
SYMATTR InstName V3
SYMATTR Value 300
SYMBOL cap 0 64 R90
WINDOW 0 0 32 VBottom 2
WINDOW 3 32 32 VTop 2
SYMATTR InstName C4
SYMATTR Value 5n
SYMBOL cap 560 48 R90
WINDOW 0 0 32 VBottom 2
WINDOW 3 32 32 VTop 2
SYMATTR InstName C5
SYMATTR Value 5n
SYMBOL r 32 160 R90
SYMATTR InstName R12
SYMATTR Value 500k
SYMBOL r -160 256 R90
SYMATTR InstName R13
SYMATTR Value 1500
SYMBOL r 112 80 R0
SYMATTR InstName R14
SYMATTR Value 37k
SYMBOL r 208 80 R0
SYMATTR InstName R15
SYMATTR Value 10k
SYMBOL cap 288 176 R0
SYMATTR InstName C6
SYMATTR Value 500p
SYMBOL r 416 -16 R90
SYMATTR InstName R16
SYMATTR Value 0
SYMBOL r 416 96 R90
SYMATTR InstName R17
SYMATTR Value 100k
SYMBOL r 592 112 R90
SYMATTR InstName R18
SYMATTR Value 1Meg
SYMBOL ind2 832 -160 M180
WINDOW 0 36 80 Left 2
WINDOW 3 36 40 Left 2
SYMATTR InstName L1
SYMATTR Value 5
SYMATTR Type ind
SYMATTR SpiceLine Rser=242 Cpar=0
SYMBOL ind2 976 -160 R180
WINDOW 0 36 80 Left 2
WINDOW 3 14 -44 Left 2
SYMATTR InstName L2
SYMATTR Value 25m
SYMATTR Type ind
SYMATTR SpiceLine Rser=0.7 Cpar=300p
SYMBOL r 1072 -192 R90
SYMATTR InstName R19
SYMATTR Value 10k
SYMBOL voltage 848 -288 R180
WINDOW 0 24 96 Left 2
WINDOW 3 24 16 Left 2
SYMATTR InstName V4
SYMATTR Value 300
SYMBOL cap 832 -160 R0
SYMATTR InstName C7
SYMATTR Value 300p
SYMBOL misc/VacuumTubes/NormanKoren/12AX7 -464 64 R0
SYMATTR InstName U4
SYMBOL misc/VacuumTubes/NormanKoren/12AU7 736 64 R0
SYMATTR InstName U5
SYMBOL misc/VacuumTubes/NormanKoren/12AX7 -128 160 R0
SYMATTR InstName U1
TEXT -400 -320 Left 2 ;O sample6 é este mesmo circuito sem NFB
TEXT 880 -288 Left 2 !k1 L1 L2 0.9998
TEXT 168 -336 Left 2 !.four 1k 9 v(out)
TEXT -776 -392 Left 2 !.tran 0 2 	1 100u
