Version 4
SHEET 1 4036 2336
WIRE -176 -112 -528 -112
WIRE -48 -112 -176 -112
WIRE 272 -112 -48 -112
WIRE 384 -112 272 -112
WIRE 544 -112 384 -112
WIRE 1008 -112 544 -112
WIRE 1216 -112 1008 -112
WIRE 2144 -96 1776 -96
WIRE 2400 -96 2144 -96
WIRE 2688 -96 2400 -96
WIRE 2800 -96 2688 -96
WIRE 2896 -96 2800 -96
WIRE 544 -80 544 -112
WIRE -528 -32 -528 -112
WIRE 1008 -32 1008 -112
WIRE 1216 -32 1216 -112
WIRE 1776 -16 1776 -96
WIRE 2400 -16 2400 -96
WIRE 2800 -16 2800 -96
WIRE -320 16 -464 16
WIRE -48 16 -48 -112
WIRE 272 16 272 -112
WIRE 1984 32 1840 32
WIRE 2336 32 1984 32
WIRE 2688 32 2688 -96
WIRE 2896 32 2896 -96
WIRE 2144 48 2144 -96
WIRE 112 64 16 64
WIRE 208 64 112 64
WIRE 1216 80 1216 48
WIRE 2800 96 2800 64
WIRE -528 128 -528 64
WIRE -320 128 -320 16
WIRE -320 128 -528 128
WIRE -176 128 -176 -112
WIRE 384 128 384 -112
WIRE 2144 128 2144 112
WIRE 1008 144 1008 32
WIRE 1008 144 896 144
WIRE 1776 144 1776 80
WIRE 1984 144 1984 32
WIRE 1984 144 1776 144
WIRE -48 160 -48 112
WIRE -32 160 -48 160
WIRE 112 160 112 64
WIRE 112 160 -32 160
WIRE 2400 160 2400 80
WIRE 2400 160 2256 160
WIRE 2544 160 2400 160
WIRE 2256 176 2256 160
WIRE 2544 176 2544 160
WIRE -528 224 -528 128
WIRE 1008 224 1008 144
WIRE 1216 224 1008 224
WIRE 2016 224 1936 224
WIRE 2144 224 2144 192
WIRE 2144 224 2080 224
WIRE 2192 224 2144 224
WIRE 2688 224 2688 160
WIRE 2688 224 2608 224
WIRE 2800 224 2688 224
WIRE 1776 240 1776 144
WIRE 1936 256 1936 224
WIRE -48 272 -48 160
WIRE 272 272 272 112
WIRE 1008 288 1008 224
WIRE 1008 288 896 288
WIRE 2256 288 2256 272
WIRE 2544 288 2544 272
WIRE 1216 304 1216 224
WIRE -288 320 -368 320
WIRE -176 320 -176 192
WIRE -176 320 -224 320
WIRE -112 320 -176 320
WIRE 384 320 384 192
WIRE 384 320 336 320
WIRE 496 320 384 320
WIRE 1008 320 1008 288
WIRE 2240 336 2192 336
WIRE 2560 336 2240 336
WIRE 2896 336 2560 336
WIRE 2896 336 2896 224
WIRE -368 352 -368 320
WIRE 2896 400 2896 336
WIRE 496 416 496 320
WIRE 1008 416 1008 384
WIRE 1008 416 896 416
WIRE -176 432 -176 320
WIRE 384 432 384 320
WIRE 2256 432 2256 384
WIRE 2272 432 2256 432
WIRE 2400 432 2272 432
WIRE 2800 432 2800 224
WIRE -48 448 -48 368
WIRE 96 448 -48 448
WIRE 272 448 272 368
WIRE 272 448 96 448
WIRE 2144 464 2144 224
WIRE 2688 464 2688 224
WIRE 2256 480 2256 432
WIRE 2544 480 2544 384
WIRE -176 528 -176 496
WIRE 384 528 384 496
WIRE 2400 528 2400 432
WIRE 2400 528 2320 528
WIRE 2480 528 2400 528
WIRE 1008 576 1008 416
WIRE 1104 576 1008 576
WIRE 2256 592 2256 576
WIRE 2272 592 2256 592
WIRE 2400 592 2272 592
WIRE 2256 640 2256 592
WIRE 2544 640 2544 576
WIRE 1008 656 1008 576
WIRE 1104 656 1104 576
WIRE -528 672 -528 288
WIRE -240 672 -528 672
WIRE 1776 688 1776 304
WIRE 2064 688 1776 688
WIRE 2400 688 2400 592
WIRE 2400 688 2320 688
WIRE 2480 688 2400 688
WIRE -528 704 -528 672
WIRE 96 704 96 448
WIRE 1776 720 1776 688
WIRE -240 752 -240 672
WIRE -240 752 -464 752
WIRE 32 752 -240 752
WIRE 2064 768 2064 688
WIRE 2064 768 1840 768
WIRE -528 848 -528 800
WIRE -176 848 -176 592
WIRE -176 848 -528 848
WIRE 96 848 96 800
WIRE 96 848 -176 848
WIRE 336 848 96 848
WIRE 384 848 384 592
WIRE 384 848 336 848
WIRE 496 848 496 480
WIRE 496 848 384 848
WIRE 1008 848 1008 720
WIRE 1008 848 496 848
WIRE 1104 848 1104 720
WIRE 1104 848 1008 848
WIRE 1216 848 1216 368
WIRE 1216 848 1104 848
WIRE 1776 864 1776 816
WIRE 2144 864 2144 528
WIRE 2144 864 1776 864
WIRE 2256 864 2256 736
WIRE 2256 864 2144 864
WIRE 2544 864 2544 736
WIRE 2544 864 2256 864
WIRE 2688 864 2688 528
WIRE 2688 864 2544 864
WIRE 2736 864 2688 864
WIRE 2896 864 2896 464
WIRE 2896 864 2736 864
WIRE 0 1344 -144 1344
WIRE 320 1344 0 1344
WIRE 1056 1344 320 1344
WIRE 1392 1344 1056 1344
WIRE 2272 1344 1904 1344
WIRE 2528 1344 2272 1344
WIRE 2816 1344 2528 1344
WIRE 3024 1344 2816 1344
WIRE 3648 1344 3024 1344
WIRE 0 1424 0 1344
WIRE 320 1424 320 1344
WIRE 1056 1424 1056 1344
WIRE 1392 1424 1392 1344
WIRE 1904 1424 1904 1344
WIRE 2528 1424 2528 1344
WIRE 3648 1424 3648 1344
WIRE 432 1472 384 1472
WIRE 992 1472 432 1472
WIRE 2112 1472 1968 1472
WIRE 2464 1472 2112 1472
WIRE 2816 1472 2816 1344
WIRE 3024 1472 3024 1344
WIRE 2272 1488 2272 1344
WIRE 400 1520 320 1520
WIRE 432 1520 432 1472
WIRE 432 1520 400 1520
WIRE 0 1536 0 1504
WIRE 3648 1536 3648 1504
WIRE 1056 1552 1056 1520
WIRE 320 1568 320 1520
WIRE 336 1568 320 1568
WIRE 864 1568 336 1568
WIRE 2272 1568 2272 1552
WIRE 1120 1584 240 1584
WIRE 1216 1584 1120 1584
WIRE 1392 1584 1392 1488
WIRE 1392 1584 1280 1584
WIRE 1904 1584 1904 1520
WIRE 2112 1584 2112 1472
WIRE 2112 1584 1904 1584
WIRE 528 1600 512 1600
WIRE 848 1600 528 1600
WIRE 1056 1600 1056 1552
WIRE 1056 1600 848 1600
WIRE 2528 1600 2528 1520
WIRE 2528 1600 2384 1600
WIRE 2672 1600 2528 1600
WIRE 2384 1616 2384 1600
WIRE 2672 1616 2672 1600
WIRE 240 1648 240 1584
WIRE 320 1648 320 1568
WIRE 512 1648 512 1600
WIRE 864 1648 864 1568
WIRE 1056 1648 1056 1600
WIRE 2048 1664 2048 1616
WIRE 2144 1664 2048 1664
WIRE 2272 1664 2272 1632
WIRE 2272 1664 2208 1664
WIRE 2320 1664 2272 1664
WIRE 2816 1664 2816 1600
WIRE 2816 1664 2736 1664
WIRE 2928 1664 2816 1664
WIRE -144 1680 -144 1344
WIRE 1392 1680 1392 1584
WIRE 1488 1680 1392 1680
WIRE 1904 1680 1904 1584
WIRE 144 1696 64 1696
WIRE 240 1696 240 1648
WIRE 240 1696 208 1696
WIRE 256 1696 240 1696
WIRE 688 1696 576 1696
WIRE 800 1696 688 1696
WIRE 1120 1696 1120 1584
WIRE 64 1728 64 1696
WIRE 2384 1728 2384 1712
WIRE 2672 1728 2672 1712
WIRE 688 1760 688 1696
WIRE 1216 1760 688 1760
WIRE 1392 1760 1392 1680
WIRE 1392 1760 1280 1760
WIRE 320 1776 320 1744
WIRE 416 1776 320 1776
WIRE 512 1776 512 1744
WIRE 512 1776 416 1776
WIRE 688 1776 688 1760
WIRE 864 1776 864 1744
WIRE 960 1776 864 1776
WIRE 1056 1776 1056 1744
WIRE 1056 1776 960 1776
WIRE 1392 1776 1392 1760
WIRE 2368 1776 2320 1776
WIRE 2688 1776 2368 1776
WIRE 3024 1776 2688 1776
WIRE 3024 1776 3024 1664
WIRE 1488 1808 1488 1680
WIRE 3024 1840 3024 1776
WIRE 688 1872 688 1840
WIRE 1216 1872 1024 1872
WIRE 1392 1872 1392 1840
WIRE 1392 1872 1280 1872
WIRE 2384 1872 2384 1824
WIRE 2400 1872 2384 1872
WIRE 2528 1872 2400 1872
WIRE 2928 1872 2928 1664
WIRE 416 1904 416 1776
WIRE 960 1904 960 1776
WIRE 2272 1904 2272 1664
WIRE 2816 1904 2816 1664
WIRE 2384 1920 2384 1872
WIRE 2672 1920 2672 1824
WIRE 208 1952 128 1952
WIRE 320 1952 272 1952
WIRE 352 1952 320 1952
WIRE 1024 1952 1024 1872
WIRE 128 1968 128 1952
WIRE 2528 1968 2528 1872
WIRE 2528 1968 2448 1968
WIRE 2608 1968 2528 1968
WIRE 320 1984 320 1952
WIRE 1216 1984 320 1984
WIRE 1392 1984 1392 1872
WIRE 1392 1984 1280 1984
WIRE 1392 2032 1392 1984
WIRE 1392 2032 1296 2032
WIRE 2384 2032 2384 2016
WIRE 2400 2032 2384 2032
WIRE 2528 2032 2400 2032
WIRE 416 2080 416 2000
WIRE 704 2080 416 2080
WIRE 960 2080 960 2000
WIRE 960 2080 704 2080
WIRE 2384 2080 2384 2032
WIRE 2672 2080 2672 2016
WIRE 1296 2112 1296 2032
WIRE 1392 2112 1392 2032
WIRE -144 2128 -144 1744
WIRE 144 2128 -144 2128
WIRE 1904 2128 1904 1744
WIRE 2192 2128 1904 2128
WIRE 2528 2128 2528 2032
WIRE 2528 2128 2448 2128
WIRE 2608 2128 2528 2128
WIRE -144 2160 -144 2128
WIRE 704 2160 704 2080
WIRE 1904 2160 1904 2128
WIRE 144 2208 144 2128
WIRE 144 2208 -80 2208
WIRE 640 2208 144 2208
WIRE 2192 2208 2192 2128
WIRE 2192 2208 1968 2208
WIRE -144 2304 -144 2256
WIRE 704 2304 704 2256
WIRE 1296 2304 1296 2176
WIRE 1392 2304 1392 2176
WIRE 1488 2304 1488 1872
WIRE 1904 2304 1904 2256
WIRE 2272 2304 2272 1968
WIRE 2272 2304 1904 2304
WIRE 2384 2304 2384 2176
WIRE 2384 2304 2272 2304
WIRE 2672 2304 2672 2176
WIRE 2672 2304 2384 2304
WIRE 2816 2304 2816 1968
WIRE 2816 2304 2672 2304
WIRE 2864 2304 2816 2304
WIRE 3024 2304 3024 1904
WIRE 3024 2304 2864 2304
FLAG 1216 80 0
FLAG 336 848 0
FLAG -368 432 0
FLAG 2800 96 0
FLAG 1936 336 0
FLAG 688 1872 0
FLAG 704 2304 0
FLAG 0 1536 0
FLAG 64 1808 0
FLAG 128 2048 0
FLAG 1296 2304 0
FLAG 1392 2304 0
FLAG -144 2304 0
FLAG 2736 784 0
FLAG 2800 496 0
FLAG 3648 1536 0
FLAG 2864 2224 0
FLAG 2928 1936 0
FLAG 1056 1552 Out
IOPIN 1056 1552 Out
FLAG 1488 2304 0
SYMBOL npn -464 704 M0
SYMATTR InstName Q2
SYMATTR Value 2N2222
SYMBOL r -528 224 R90
SYMATTR InstName R1
SYMATTR Value 170
SYMBOL r 1008 -32 R90
SYMATTR InstName R2
SYMATTR Value 2.7k
SYMBOL r 1008 320 R90
SYMATTR InstName R3
SYMATTR Value 3.3k
SYMBOL r 896 144 R180
SYMATTR InstName R5
SYMATTR Value 2.2k
SYMBOL r 896 288 R180
SYMATTR InstName R6
SYMATTR Value 2.2k
SYMBOL r 896 416 R180
SYMATTR InstName R7
SYMATTR Value 2.2k
SYMBOL r 1008 656 R90
SYMATTR InstName R8
SYMATTR Value 2.2k
SYMBOL cap 1200 304 R0
SYMATTR InstName C2
SYMATTR Value 100n
SYMBOL voltage 1216 -48 R0
SYMATTR InstName V1
SYMATTR Value 25
SYMBOL cap 1088 656 R0
SYMATTR InstName C5
SYMATTR Value 100n
SYMBOL pnp -464 64 R180
SYMATTR InstName Q1
SYMATTR Value BC557B
SYMBOL pnp 16 112 R180
SYMATTR InstName Q5
SYMATTR Value BC557B
SYMBOL pnp 208 112 M180
SYMATTR InstName Q3
SYMATTR Value BC557B
SYMBOL npn -112 272 R0
SYMATTR InstName Q4
SYMATTR Value 2N2222
SYMBOL npn 336 272 M0
SYMATTR InstName Q6
SYMATTR Value 2N2222
SYMBOL npn 32 704 R0
SYMATTR InstName Q7
SYMATTR Value 2N2222
SYMBOL voltage -368 336 R0
WINDOW 3 -108 -40 Left 2
SYMATTR Value SINE(0 50m 1k)
SYMATTR InstName V2
SYMATTR Value2 AC 1
SYMBOL cap -224 304 R90
WINDOW 0 0 32 VBottom 2
WINDOW 3 32 32 VTop 2
SYMATTR InstName C1
SYMATTR Value 100n
SYMBOL diode -192 432 R0
SYMATTR InstName D1
SYMATTR Value 1N4148
SYMBOL diode -192 528 R0
SYMATTR InstName D2
SYMATTR Value 1N4148
SYMBOL r -176 128 R90
SYMATTR InstName R4
SYMATTR Value 10k
SYMBOL diode 368 432 R0
SYMATTR InstName D3
SYMATTR Value 1N4148
SYMBOL diode 368 528 R0
SYMATTR InstName D4
SYMATTR Value 1N4148
SYMBOL r 384 128 R90
SYMATTR InstName R9
SYMATTR Value 10k
SYMBOL cap 480 416 R0
SYMATTR InstName C3
SYMATTR Value 100n
SYMBOL npn 1840 720 M0
SYMATTR InstName Q8
SYMATTR Value BC547B
SYMBOL r 1776 240 R90
SYMATTR InstName R10
SYMATTR Value 357.5
SYMBOL voltage 2800 -32 R0
SYMATTR InstName V3
SYMATTR Value 15
SYMBOL pnp 1840 80 R180
SYMATTR InstName Q9
SYMATTR Value BC557B
SYMBOL voltage 1936 240 R0
WINDOW 3 -108 -40 Left 2
SYMATTR Value SINE(0 400u 1k)
SYMATTR InstName V4
SYMATTR Value2 AC 1
SYMBOL cap 2080 208 R90
WINDOW 0 0 32 VBottom 2
WINDOW 3 32 32 VTop 2
SYMATTR InstName C7
SYMATTR Value 100n
SYMBOL diode 2672 32 R0
SYMATTR InstName D7
SYMATTR Value 1N4148
SYMBOL diode 2672 96 R0
SYMATTR InstName D8
SYMATTR Value 1N4148
SYMBOL r 2688 464 R90
SYMATTR InstName R18
SYMATTR Value 1Meg
SYMBOL cap 2784 432 R0
SYMATTR InstName C8
SYMATTR Value 100n
SYMBOL pnp 2192 272 M180
SYMATTR InstName Q11
SYMATTR Value BC557B
SYMBOL pnp 2608 272 R180
SYMATTR InstName Q12
SYMATTR Value BC557B
SYMBOL diode 2128 48 R0
SYMATTR InstName D5
SYMATTR Value 1N4148
SYMBOL diode 2128 128 R0
SYMATTR InstName D6
SYMATTR Value 1N4148
SYMBOL r 2144 464 R90
SYMATTR InstName R17
SYMATTR Value 1Meg
SYMBOL npn 256 1648 R0
SYMATTR InstName Q17
SYMATTR Value BC547B
SYMBOL npn -80 2160 M0
SYMATTR InstName Q18
SYMATTR Value 2N2222
SYMBOL r -144 1680 R90
SYMATTR InstName R19
SYMATTR Value 3.41k
SYMBOL cap 672 1776 R0
SYMATTR InstName C9
SYMATTR Value 100n
SYMBOL r 1392 1424 R90
SYMATTR InstName R20
SYMATTR Value 4.7k
SYMBOL r 1392 1776 R90
SYMATTR InstName R21
SYMATTR Value 3.3k
SYMBOL r 1280 1984 R180
SYMATTR InstName R22
SYMATTR Value 2.2k
SYMBOL r 1280 1584 R180
SYMATTR InstName R23
SYMATTR Value 2.2k
SYMBOL r 1280 1760 R180
SYMATTR InstName R24
SYMATTR Value 2.2k
SYMBOL r 1280 1872 R180
SYMATTR InstName R25
SYMATTR Value 2.2k
SYMBOL r 1392 2112 R90
SYMATTR InstName R26
SYMATTR Value 2.2k
SYMBOL cap 1504 1872 R180
WINDOW 0 24 56 Left 2
WINDOW 3 24 8 Left 2
SYMATTR InstName C10
SYMATTR Value 100n
SYMBOL voltage 0 1408 R0
SYMATTR InstName V5
SYMATTR Value 15
SYMBOL voltage 128 1952 R0
SYMATTR InstName V6
SYMATTR Value SINE(0 20m 1k)
SYMATTR Value2 AC 1
SYMBOL voltage 64 1712 R0
WINDOW 3 -75 -60 Left 2
SYMATTR Value SINE(0 5m 20)
SYMATTR InstName V7
SYMATTR Value2 AC 1
SYMBOL cap 208 1680 R90
WINDOW 0 0 32 VBottom 2
WINDOW 3 32 32 VTop 2
SYMATTR InstName C11
SYMATTR Value 100n
SYMBOL cap 272 1936 R90
WINDOW 0 0 32 VBottom 2
WINDOW 3 32 32 VTop 2
SYMATTR InstName C12
SYMATTR Value 100n
SYMBOL cap 1280 2112 R0
SYMATTR InstName C13
SYMATTR Value 100n
SYMBOL npn 352 1904 R0
SYMATTR InstName Q19
SYMATTR Value BC547B
SYMBOL npn 800 1648 R0
SYMATTR InstName Q20
SYMATTR Value BC547B
SYMBOL npn 1120 1648 M0
SYMATTR InstName Q21
SYMATTR Value BC547B
SYMBOL npn 1024 1904 M0
SYMATTR InstName Q22
SYMATTR Value BC547B
SYMBOL npn 576 1648 M0
SYMATTR InstName Q23
SYMATTR Value BC547B
SYMBOL npn 640 2160 R0
SYMATTR InstName Q24
SYMATTR Value 2N2222
SYMBOL pnp 992 1520 M180
SYMATTR InstName Q25
SYMATTR Value BC557B
SYMBOL pnp 384 1520 R180
SYMATTR InstName Q26
SYMATTR Value BC557B
SYMBOL npn 2320 640 M0
SYMATTR InstName Q13
SYMATTR Value BC547B
SYMBOL npn 2320 480 M0
SYMATTR InstName Q14
SYMATTR Value BC547B
SYMBOL npn 2480 480 R0
SYMATTR InstName Q15
SYMATTR Value BC547B
SYMBOL npn 2480 640 R0
SYMATTR InstName Q16
SYMATTR Value BC547B
SYMBOL pnp 2192 384 M180
SYMATTR InstName Q10
SYMATTR Value BC557B
SYMBOL pnp 2608 384 R180
SYMATTR InstName Q37
SYMATTR Value BC557B
SYMBOL pnp 2336 80 M180
SYMATTR InstName Q38
SYMATTR Value BC557B
SYMBOL voltage 2736 768 R0
SYMATTR InstName V9
SYMATTR Value 15
SYMBOL diode 2880 32 R0
SYMATTR InstName D13
SYMATTR Value 1N4148
SYMBOL diode 2880 96 R0
SYMATTR InstName D14
SYMATTR Value 1N4148
SYMBOL diode 2880 160 R0
SYMATTR InstName D15
SYMATTR Value 1N4148
SYMBOL r 2896 400 R90
SYMATTR InstName R11
SYMATTR Value 1Meg
SYMBOL npn 1968 2160 M0
SYMATTR InstName Q27
SYMATTR Value BC547B
SYMBOL r 1904 1680 R90
SYMATTR InstName R12
SYMATTR Value 340
SYMBOL voltage 3648 1408 R0
SYMATTR InstName V8
SYMATTR Value 15
SYMBOL pnp 1968 1520 R180
SYMATTR InstName Q28
SYMATTR Value BC557B
SYMBOL cap 2208 1648 R90
WINDOW 0 0 32 VBottom 2
WINDOW 3 32 32 VTop 2
SYMATTR InstName C4
SYMATTR Value 100n
SYMBOL diode 2800 1472 R0
SYMATTR InstName D9
SYMATTR Value 1N4148
SYMBOL diode 2800 1536 R0
SYMATTR InstName D10
SYMATTR Value 1N4148
SYMBOL r 2816 1904 R90
SYMATTR InstName R13
SYMATTR Value 1Meg
SYMBOL cap 2912 1872 R0
SYMATTR InstName C6
SYMATTR Value 100n
SYMBOL pnp 2320 1712 M180
SYMATTR InstName Q29
SYMATTR Value BC557B
SYMBOL pnp 2736 1712 R180
SYMATTR InstName Q30
SYMATTR Value BC557B
SYMBOL diode 2256 1488 R0
SYMATTR InstName D11
SYMATTR Value 1N4148
SYMBOL diode 2256 1568 R0
SYMATTR InstName D12
SYMATTR Value 1N4148
SYMBOL r 2272 1904 R90
SYMATTR InstName R14
SYMATTR Value 1Meg
SYMBOL npn 2448 2080 M0
SYMATTR InstName Q31
SYMATTR Value BC547B
SYMBOL npn 2448 1920 M0
SYMATTR InstName Q32
SYMATTR Value BC547B
SYMBOL npn 2608 1920 R0
SYMATTR InstName Q33
SYMATTR Value BC547B
SYMBOL npn 2608 2080 R0
SYMATTR InstName Q34
SYMATTR Value BC547B
SYMBOL pnp 2320 1824 M180
SYMATTR InstName Q35
SYMATTR Value BC557B
SYMBOL pnp 2736 1824 R180
SYMATTR InstName Q39
SYMATTR Value BC557B
SYMBOL pnp 2464 1520 M180
SYMATTR InstName Q40
SYMATTR Value BC557B
SYMBOL voltage 2864 2208 R0
SYMATTR InstName V11
SYMATTR Value 15
SYMBOL diode 3008 1472 R0
SYMATTR InstName D16
SYMATTR Value 1N4148
SYMBOL diode 3008 1536 R0
SYMATTR InstName D17
SYMATTR Value 1N4148
SYMBOL diode 3008 1600 R0
SYMATTR InstName D18
SYMATTR Value 1N4148
SYMBOL r 3024 1840 R90
SYMATTR InstName R15
SYMATTR Value 1Meg
TEXT 104 -224 Left 2 !.tran 0 1 0 10u
