Version 4
SHEET 1 2192 912
WIRE 144 288 -64 288
WIRE 416 288 208 288
WIRE -64 352 -64 288
WIRE 416 352 416 288
FLAG 416 416 0
FLAG -64 432 0
FLAG 416 288 out
FLAG -64 288 in
SYMBOL xdiode 144 304 R270
WINDOW 0 32 32 VTop 2
WINDOW 3 0 32 VBottom 2
SYMATTR InstName 1N4007
SYMATTR Value 1N4007
SYMATTR Prefix D
SYMBOL r 416 352 R90
SYMATTR InstName R1
SYMATTR Value 1k
SYMBOL voltage -64 336 R0
SYMATTR InstName V1
SYMATTR Value SINE(0 180 60)
SYMATTR Value2 AC 180
TEXT -128 248 Left 2 !.tran 0 100m 0 1u
TEXT -80 496 Left 2 !******************************************\n* 1N4007 general-purpose silicon       		*\n*rectifier diode / LTSpice Standard.dio		*\n******************************************\n.MODEL 1N4007 D(IS=7.02767n RS=0.0341512 N=1.80803 \n+EG=1.05743 XTI=5 BV=1000 IBV=5e-08 CJO=1e-11 \n+VJ=0.7 M=0.5 FC=0.5 TT=1e-07 mfg=OnSemi)
