Version 4
SHEET 1 1656 1344
WIRE -544 912 -544 880
WIRE -544 992 -544 1024
WIRE -544 880 -256 880
WIRE -256 880 -32 880
WIRE 1072 912 1104 912
WIRE 1104 912 1104 928
WIRE 1104 992 1104 1008
WIRE 912 1088 864 1088
WIRE 864 1088 864 944
WIRE 864 944 896 944
WIRE 1056 1056 1168 1056
WIRE 1168 1056 1168 912
WIRE 1168 912 1104 912
WIRE 1216 912 1168 912
WIRE 960 912 992 912
WIRE 1488 912 1552 912
WIRE 432 912 896 912
WIRE 1424 912 1312 912
WIRE 1264 1008 1232 1008
WIRE 1232 1008 1232 1040
WIRE 1312 1040 1312 1024
WIRE 1312 944 1312 912
WIRE 1264 960 1216 960
WIRE 1216 960 1216 912
WIRE 368 1008 368 1040
WIRE 432 1040 432 1024
WIRE 432 944 432 912
WIRE 112 912 368 912
WIRE 368 912 368 960
WIRE 368 960 384 960
WIRE 384 1008 368 1008
FLAG -544 1024 GND
FLAG -256 880 in
FLAG 1104 1008 GND
FLAG 1232 1040 GND
FLAG 1312 1040 GND
FLAG 368 1040 GND
FLAG 432 1040 GND
FLAG 1552 912 out
SYMBOL modulate -32 880 R0
WINDOW 3 -28 120 Left 0
SYMATTR InstName A1
SYMATTR Value mark=1.1K space=.9K
SYMBOL res 1088 896 R90
WINDOW 0 0 56 VBottom 0
WINDOW 3 32 56 VTop 0
SYMATTR InstName R3
SYMATTR Value 1K
SYMBOL cap 1088 928 R0
SYMATTR InstName C2
SYMATTR Value 1µ
SYMBOL modulate 1056 1056 M0
WINDOW 3 -116 120 Left 0
SYMATTR InstName A3
SYMATTR Value mark=2K space=0
SYMBOL xor 944 864 R0
WINDOW 0 -40 8 Left 0
WINDOW 3 -56 120 Left 0
SYMATTR InstName A2
SYMATTR Value ref=0
SYMBOL schmtbuf 1424 848 R0
SYMATTR InstName A4
SYMATTR Value Vt=.5 Vh=1m
SYMBOL e 1312 928 R0
SYMATTR InstName E2
SYMATTR Value Laplace=1./(1+.0005*s)**3
SYMBOL e 432 928 R0
WINDOW 3 -364 160 Left 0
WINDOW 39 -196 204 Left 0
SYMATTR InstName E1
SYMATTR Value Laplace={w0/Q}*s /(s*s  + {w0/Q}*s + {w0*w0})
SYMATTR SpiceLine window=.1 nfft=4096
SYMBOL bv -544 896 R0
SYMATTR InstName B1
SYMATTR Value V=rand(time*500) >= .5
TEXT -544 1240 Left 0 !.tran 0 300m 10m
TEXT -544 1200 Left 0 !.params w0=2*pi*1K Q=5
TEXT -544 1280 Left 0 ;.options baudrate=500 delay=3m
text -352 1328 Left 0 ;This example schematic is supplied for informational/educational purposes only.
