Version 4
SHEET 1 3188 1508
WIRE 1120 800 928 800
WIRE 1760 800 1120 800
WIRE 928 816 928 800
WIRE 1536 816 1408 816
WIRE 1680 816 1536 816
WIRE 1680 832 1680 816
WIRE 1120 848 1120 800
WIRE 1264 848 1264 832
WIRE 1408 848 1408 816
WIRE 1536 848 1536 816
WIRE 928 912 928 896
WIRE 1680 912 1680 896
WIRE 1760 912 1760 800
WIRE 1040 928 1024 928
WIRE 1536 928 1536 912
WIRE 1536 928 1488 928
WIRE 1712 992 1488 992
WIRE 1536 1008 1536 928
WIRE 928 1056 848 1056
WIRE 1040 1056 992 1056
WIRE 1536 1088 1536 1072
WIRE 1536 1088 1488 1088
WIRE 1760 1088 1760 1008
WIRE 1760 1088 1536 1088
WIRE 1904 1088 1760 1088
WIRE 1936 1088 1904 1088
WIRE 2080 1088 2016 1088
WIRE 2096 1088 2080 1088
WIRE 2192 1088 2176 1088
WIRE 2272 1088 2192 1088
WIRE 2416 1088 2272 1088
WIRE 2560 1088 2416 1088
WIRE 1760 1104 1760 1088
WIRE 2416 1104 2416 1088
WIRE 2560 1104 2560 1088
WIRE 1904 1120 1904 1088
WIRE 2272 1152 2272 1088
WIRE 864 1184 848 1184
WIRE 960 1184 944 1184
WIRE 1040 1184 1024 1184
WIRE 1712 1184 1488 1184
WIRE 2416 1200 2416 1168
WIRE 2560 1200 2560 1184
WIRE 1760 1216 1760 1200
WIRE 1904 1216 1904 1184
WIRE 2272 1248 2272 1232
WIRE 2272 1248 2224 1248
WIRE 2080 1264 2080 1088
WIRE 2080 1264 1488 1264
WIRE 2272 1264 2272 1248
WIRE 944 1312 896 1312
WIRE 1040 1312 1008 1312
WIRE 2192 1328 2192 1088
WIRE 2192 1328 1488 1328
WIRE 2272 1360 2272 1344
WIRE 2224 1392 2224 1248
WIRE 2224 1392 1488 1392
WIRE 1152 1488 1152 1456
WIRE 1376 1488 1376 1456
FLAG 1152 1488 0
FLAG 1376 1488 0
FLAG 848 1184 0
FLAG 848 1056 0
FLAG 2272 1360 0
FLAG 2416 1200 0
FLAG 928 912 0
FLAG 1760 1216 0
FLAG 896 1312 0
FLAG 2560 1088 OUT
FLAG 1680 912 0
FLAG 1904 1216 0
FLAG 928 800 IN
FLAG 2560 1200 0
SYMBOL RES 960 1168 R90
WINDOW 0 0 56 VBottom 2
WINDOW 3 32 56 VTop 2
SYMATTR InstName R1
SYMATTR Value 33K
SYMBOL res 2256 1136 R0
SYMATTR InstName R2
SYMATTR Value 10K
SYMBOL res 2256 1248 R0
SYMATTR InstName R3
SYMATTR Value 10K
SYMBOL res 2080 1072 M90
WINDOW 0 0 56 VBottom 2
WINDOW 3 32 56 VTop 2
SYMATTR InstName R4
SYMATTR Value .005
SYMBOL cap 1024 1168 R90
WINDOW 0 0 32 VBottom 2
WINDOW 3 32 32 VTop 2
SYMATTR InstName C1
SYMATTR Value 330p
SYMBOL cap 1008 1296 R90
WINDOW 0 0 32 VBottom 2
WINDOW 3 32 32 VTop 2
SYMATTR InstName C2
SYMATTR Value 43p
SYMBOL cap 992 1040 R90
WINDOW 0 0 32 VBottom 2
WINDOW 3 32 32 VTop 2
SYMATTR InstName C3
SYMATTR Value .001µ
SYMBOL polcap 2400 1104 R0
WINDOW 123 27 57 Left 2
WINDOW 3 39 31 Left 2
SYMATTR Value2 x4
SYMATTR Value 180µ
SYMATTR InstName C4
SYMBOL VOLTAGE 928 800 R0
SYMATTR InstName V1
SYMATTR Value 24
SYMBOL ind 1920 1104 R270
WINDOW 0 32 56 VTop 2
WINDOW 3 5 56 VBottom 2
SYMATTR InstName L1
SYMATTR Value 2µ
SYMBOL NMOS 1712 912 R0
SYMATTR InstName Q1
SYMATTR Value Si4410DY
SYMBOL nmos 1712 1104 R0
SYMATTR InstName Q2
SYMATTR Value Si4410DY
SYMBOL cap 1664 832 R0
SYMATTR InstName C5
SYMATTR Value 4.7µ
SYMBOL cap 1520 1008 R0
SYMATTR InstName C6
SYMATTR Value .22µ
SYMBOL schottky 1520 848 R0
SYMATTR InstName D1
SYMATTR Value 1N5818
SYMBOL schottky 1888 1184 M180
WINDOW 0 24 72 Left 2
WINDOW 3 24 0 Left 2
SYMATTR InstName D2
SYMATTR Value 1N5818
SYMBOL POWERPRODUCTS\\LTC1735 1264 1120 R0
SYMATTR InstName U1
SYMBOL res 2544 1088 R0
SYMATTR InstName R5
SYMATTR Value .17
TEXT 1888 1448 Left 2 !.tran 3m startup
