Version 4
SHEET 1 880 680
WIRE -64 96 -144 96
WIRE 128 96 -64 96
WIRE 176 96 128 96
WIRE 304 96 256 96
WIRE 320 96 304 96
WIRE 400 96 384 96
WIRE 480 96 400 96
WIRE 608 96 560 96
WIRE 688 96 608 96
WIRE 736 96 688 96
WIRE -144 112 -144 96
WIRE 400 112 400 96
WIRE 608 112 608 96
WIRE 736 128 736 96
WIRE 128 144 128 96
WIRE -144 208 -144 192
WIRE -64 208 -64 96
WIRE -16 208 -64 208
WIRE 304 208 304 96
WIRE 304 208 272 208
WIRE 400 208 400 176
WIRE 608 208 608 176
WIRE 736 240 736 208
WIRE -96 288 -128 288
WIRE -16 288 -32 288
WIRE 512 288 272 288
WIRE 528 288 512 288
WIRE 624 288 608 288
WIRE 688 288 688 96
WIRE 688 288 624 288
WIRE -112 368 -128 368
WIRE -16 368 -32 368
WIRE 320 368 272 368
WIRE 416 368 384 368
WIRE 512 400 512 288
WIRE 544 400 512 400
WIRE 624 400 624 288
WIRE 624 400 608 400
WIRE 128 448 128 432
FLAG 128 448 0
FLAG 608 208 0
FLAG 416 368 0
FLAG -128 368 0
FLAG -128 288 0
FLAG -144 208 0
FLAG 736 240 0
FLAG -144 96 IN
FLAG 736 96 OUT
FLAG 400 208 0
SYMBOL PowerProducts\\LT3580 128 288 R0
SYMATTR InstName U1
SYMBOL ind2 160 112 R270
WINDOW 0 32 56 VTop 2
WINDOW 3 5 56 VBottom 2
SYMATTR InstName L1
SYMATTR Value 4.7µ
SYMATTR Type ind
SYMBOL schottky 384 112 R0
WINDOW 0 27 4 Left 2
SYMATTR InstName D1
SYMATTR Value 1N5818
SYMATTR Description Diode
SYMATTR Type diode
SYMBOL cap 592 112 R0
SYMATTR InstName C1
SYMATTR Value 10µ
SYMBOL cap 384 352 R90
WINDOW 0 0 32 VBottom 2
WINDOW 3 32 32 VTop 2
WINDOW 39 60 32 VTop 2
SYMATTR InstName C2
SYMATTR Value 2200p
SYMATTR SpiceLine Rser=10K
SYMBOL res -16 352 R90
WINDOW 0 0 56 VBottom 2
WINDOW 3 32 56 VTop 2
SYMATTR InstName R1
SYMATTR Value 35.7K
SYMBOL cap -32 272 R90
WINDOW 0 0 32 VBottom 2
WINDOW 3 32 32 VTop 2
SYMATTR InstName C3
SYMATTR Value .001µ
SYMBOL voltage -144 96 R0
SYMATTR InstName V1
SYMATTR Value 5
SYMBOL res 624 272 R90
WINDOW 0 0 56 VBottom 2
WINDOW 3 32 56 VTop 2
SYMATTR InstName R2
SYMATTR Value 60.2K
SYMBOL res 720 112 R0
SYMATTR InstName Rload
SYMATTR Value 8
SYMBOL ind2 576 112 M270
WINDOW 0 32 56 VTop 2
WINDOW 3 4 56 VBottom 2
SYMATTR InstName L2
SYMATTR Value 4.7µ
SYMATTR Type ind
SYMBOL cap 384 80 R90
WINDOW 0 0 32 VBottom 2
WINDOW 3 32 32 VTop 2
SYMATTR InstName C4
SYMATTR Value 1µ
SYMBOL cap 608 384 R90
WINDOW 0 0 32 VBottom 2
WINDOW 3 32 32 VTop 2
SYMATTR InstName C5
SYMATTR Value 100p
TEXT 264 472 Left 2 !.tran 500u startup
TEXT 296 24 Center 2 !K1 L1 L2 1
