Version 4
SHEET 1 2936 680
WIRE 1456 -128 1360 -128
WIRE 1856 -128 1456 -128
WIRE 2048 -128 1856 -128
WIRE 2176 -128 2128 -128
WIRE 2192 -128 2176 -128
WIRE 2272 -128 2256 -128
WIRE 2320 -128 2272 -128
WIRE 2432 -128 2400 -128
WIRE 2480 -128 2432 -128
WIRE 2576 -128 2480 -128
WIRE 1360 -112 1360 -128
WIRE 1456 -112 1456 -128
WIRE 2272 -112 2272 -128
WIRE 2480 -112 2480 -128
WIRE 2576 -112 2576 -128
WIRE 1856 -80 1856 -128
WIRE 1360 -16 1360 -32
WIRE 1456 -16 1456 -32
WIRE 1696 -16 1456 -16
WIRE 2032 -16 2016 -16
WIRE 2272 -16 2272 -48
WIRE 2480 -16 2480 -48
WIRE 2576 -16 2576 -32
WIRE 1456 0 1456 -16
WIRE 2176 0 2176 -128
WIRE 1600 80 1568 80
WIRE 1696 80 1664 80
WIRE 2128 80 2016 80
WIRE 1456 96 1456 80
WIRE 2176 112 2176 96
WIRE 2176 112 2080 112
WIRE 2176 128 2176 112
WIRE 1600 176 1568 176
WIRE 1696 176 1680 176
WIRE 2080 176 2080 112
WIRE 2080 176 2016 176
WIRE 2432 176 2432 -128
WIRE 2176 224 2176 208
WIRE 1520 272 1504 272
WIRE 1600 272 1584 272
WIRE 1696 272 1680 272
WIRE 2432 272 2432 256
WIRE 2432 272 2016 272
WIRE 2432 288 2432 272
WIRE 1856 352 1856 336
WIRE 2432 384 2432 368
FLAG 2176 224 0
FLAG 1568 176 0
FLAG 2432 384 0
FLAG 1856 352 0
FLAG 2480 -16 0
FLAG 1504 272 0
FLAG 2576 -16 0
FLAG 1360 -16 0
FLAG 1568 80 0
FLAG 2096 -16 0
FLAG 2576 -128 OUT
FLAG 1360 -128 IN
FLAG 1456 96 0
FLAG 2272 -16 0
SYMBOL PowerProducts\\LT3757 1856 128 R0
SYMATTR InstName U1
SYMBOL NMOS 2128 0 R0
SYMATTR InstName Q1
SYMATTR Value FDS6680A
SYMBOL RES 1696 192 M270
WINDOW 0 32 56 VTop 2
WINDOW 3 0 56 VBottom 2
SYMATTR InstName R1
SYMATTR Value 80K
SYMBOL res 2416 272 R0
SYMATTR InstName R2
SYMATTR Value 16.2K
SYMBOL res 2416 160 R0
SYMATTR InstName R3
SYMATTR Value 226K
SYMBOL ind2 2032 -112 R270
WINDOW 0 32 56 VTop 2
WINDOW 3 4 56 VBottom 2
SYMATTR InstName L1
SYMATTR Value 10µ
SYMATTR Type ind
SYMBOL schottky 2256 -112 R0
SYMATTR InstName D1
SYMATTR Value MBR735
SYMBOL polcap 2464 -112 R0
WINDOW 40 22 58 Left 2
WINDOW 3 40 36 Left 2
SYMATTR SpiceLine2 x2
SYMATTR Value 47µ
SYMATTR InstName C1
SYMATTR SpiceLine Rser=.1
SYMBOL res 1696 288 M270
WINDOW 0 32 56 VTop 2
WINDOW 3 0 56 VBottom 2
SYMATTR InstName R4
SYMATTR Value 22K
SYMBOL cap 1584 288 M270
WINDOW 0 32 32 VTop 2
WINDOW 3 0 32 VBottom 2
SYMATTR InstName C2
SYMATTR Value 6800p
SYMBOL VOLTAGE 1360 -128 R0
SYMATTR InstName V1
SYMATTR Value 12
SYMBOL polcap 2032 -32 M90
WINDOW 0 0 32 VBottom 2
WINDOW 3 32 32 VTop 2
SYMATTR InstName C3
SYMATTR Value 4.7µ
SYMBOL cap 1664 64 R90
WINDOW 0 0 32 VBottom 2
WINDOW 3 32 32 VTop 2
SYMATTR InstName C4
SYMATTR Value .01µ
SYMBOL res 1440 -16 R0
SYMATTR InstName R5
SYMATTR Value 43.2K
SYMBOL res 1440 -128 R0
SYMATTR InstName R6
SYMATTR Value 200K
SYMBOL res 2560 -128 R0
SYMATTR InstName Rload
SYMATTR Value 12
SYMBOL ind2 2416 -112 M270
WINDOW 0 32 56 VTop 2
WINDOW 3 5 56 VBottom 2
SYMATTR InstName L2
SYMATTR Value 10µ
SYMATTR Type ind
SYMBOL cap 2256 -144 R90
WINDOW 0 0 32 VBottom 2
WINDOW 3 32 32 VTop 2
SYMATTR InstName C5
SYMATTR Value 10µ
SYMBOL res 2160 112 R0
SYMATTR InstName R7
SYMATTR Value .01
TEXT 2152 328 Left 2 !.tran 5m startup
TEXT 2192 -208 Center 2 !K1 L1 l2 1.
