Version 4
SHEET 1 1788 928
WIRE 912 -160 -256 -160
WIRE 656 -128 80 -128
WIRE 784 -128 656 -128
WIRE 480 -112 -176 -112
WIRE 784 -112 784 -128
WIRE 80 -80 80 -128
WIRE 272 -80 272 -96
WIRE -256 -16 -256 -160
WIRE -256 -16 -352 -16
WIRE -80 -16 -256 -16
WIRE 480 -16 480 -112
WIRE 480 -16 432 -16
WIRE 528 -16 480 -16
WIRE 608 -16 592 -16
WIRE 784 -16 784 -32
WIRE -352 0 -352 -16
WIRE -256 0 -256 -16
WIRE 480 0 480 -16
WIRE 656 0 656 -128
WIRE -176 64 -176 -112
WIRE -80 80 -96 80
WIRE 608 80 432 80
WIRE -352 96 -352 80
WIRE -256 96 -256 64
WIRE -176 176 -176 144
WIRE -80 176 -176 176
WIRE 480 176 480 64
WIRE 480 176 432 176
WIRE 528 176 480 176
WIRE 656 176 656 96
WIRE 656 176 592 176
WIRE -176 192 -176 176
WIRE 912 224 912 -160
WIRE -80 272 -96 272
WIRE 656 272 656 176
WIRE 656 272 432 272
WIRE 704 272 656 272
WIRE 816 272 784 272
WIRE 848 272 816 272
WIRE 960 272 928 272
WIRE 1056 272 1040 272
WIRE 1088 272 1056 272
WIRE 1152 272 1088 272
WIRE 1248 272 1152 272
WIRE 1360 272 1248 272
WIRE -176 288 -176 272
WIRE 656 288 656 272
WIRE 1152 288 1152 272
WIRE 1248 288 1248 272
WIRE 1360 288 1360 272
WIRE -80 368 -96 368
WIRE 608 368 432 368
WIRE 1152 384 1152 352
WIRE 1248 384 1248 352
WIRE 1360 384 1360 368
WIRE 656 416 656 384
WIRE -80 464 -96 464
WIRE 816 464 816 272
WIRE 816 464 432 464
WIRE -176 560 -208 560
WIRE -80 560 -112 560
WIRE 1056 560 1056 272
WIRE 1056 560 432 560
WIRE -256 656 -288 656
WIRE -80 656 -192 656
WIRE 1088 656 1088 272
WIRE 1088 656 432 656
WIRE 80 736 80 720
WIRE 272 736 272 720
FLAG 272 736 0
FLAG 80 736 0
FLAG 656 416 0
FLAG 1152 384 0
FLAG 1248 384 0
FLAG 1248 272 OUT
FLAG 608 -16 0
FLAG -288 656 0
FLAG -208 560 0
FLAG 784 -16 0
FLAG -176 288 0
FLAG 784 -128 IN
FLAG -256 96 0
FLAG -352 96 0
FLAG 864 224 0
FLAG 1360 384 0
SYMBOL PowerProducts\\LTC3835 176 320 R0
SYMATTR InstName U1
SYMBOL nmos 608 0 R0
SYMATTR InstName Q1
SYMATTR Value Si4840DY
SYMBOL nmos 608 288 R0
SYMATTR InstName Q2
SYMATTR Value Si4840DY
SYMBOL ind 688 288 R270
WINDOW 0 32 56 VTop 2
WINDOW 3 5 56 VBottom 2
SYMATTR InstName L1
SYMATTR Value 3.2µ
SYMATTR SpiceLine Rpar=5K
SYMBOL res 944 288 R270
WINDOW 0 32 56 VTop 2
WINDOW 3 0 56 VBottom 2
SYMATTR InstName R1
SYMATTR Value .012
SYMBOL cap 528 192 R270
WINDOW 0 32 32 VTop 2
WINDOW 3 0 32 VBottom 2
SYMATTR InstName C1
SYMATTR Value .1µ
SYMBOL schottky 464 0 R0
WINDOW 3 22 66 Left 2
SYMATTR Value MBR0540
SYMATTR InstName D1
SYMATTR Description Diode
SYMATTR Type diode
SYMBOL cap 528 0 R270
WINDOW 0 32 32 VTop 2
WINDOW 3 0 32 VBottom 2
SYMATTR InstName C2
SYMATTR Value 4.7µ
SYMBOL cap -192 640 R90
WINDOW 0 0 32 VBottom 2
WINDOW 3 32 32 VTop 2
WINDOW 39 53 32 VTop 2
SYMATTR InstName C3
SYMATTR Value 1200p
SYMATTR SpiceLine Rser=9.53K
SYMBOL cap -112 544 R90
WINDOW 0 0 32 VBottom 2
WINDOW 3 32 32 VTop 2
SYMATTR InstName C4
SYMATTR Value 1000p
SYMBOL voltage 784 -128 R0
WINDOW 3 20 93 Left 2
SYMATTR Value 9
SYMATTR InstName V1
SYMBOL cap 1136 288 R0
SYMATTR InstName C5
SYMATTR Value 150µ
SYMBOL res -192 48 R0
SYMATTR InstName R4
SYMATTR Value 50K
SYMBOL res -192 176 R0
SYMATTR InstName R5
SYMATTR Value 100K
SYMBOL current -352 80 M180
WINDOW 0 27 77 Left 2
WINDOW 3 24 0 Left 2
SYMATTR InstName I1
SYMATTR Value 1µ
SYMBOL cap -272 0 R0
SYMATTR InstName C6
SYMATTR Value 10p
SYMBOL diode 1232 288 R0
SYMATTR InstName D2
SYMATTR Value 5A
SYMBOL e 944 272 R90
WINDOW 0 -23 20 VLeft 2
WINDOW 3 32 40 VLeft 2
SYMATTR InstName E1
SYMATTR Value {X}
SYMBOL current 1360 288 R0
SYMATTR InstName I2
SYMATTR Value pulse(0 1 .9m 10u 10u .1m .2m)
TEXT 560 736 Left 2 !.tran 1.2m startup
TEXT 504 696 Left 2 !.model 5A D(Ron=.1 Ilimit=5A epsilon=.3)
TEXT 1064 64 Left 2 !.step param X list 0 300m
