Version 4
SHEET 1 940 680
WIRE 32 0 16 0
WIRE 128 0 112 0
WIRE 160 0 128 0
WIRE 336 0 240 0
WIRE 128 96 128 0
WIRE 176 96 128 96
WIRE -336 112 -336 96
WIRE -208 112 -208 96
WIRE 16 112 0 112
WIRE 176 112 96 112
WIRE 336 144 336 0
WIRE 336 144 304 144
WIRE 464 144 336 144
WIRE 464 160 464 144
WIRE 0 176 0 112
WIRE 176 176 0 176
WIRE 176 192 -96 192
WIRE -336 208 -336 192
WIRE -208 208 -208 192
WIRE -96 208 -96 192
WIRE 464 256 464 240
WIRE -96 304 -96 288
FLAG 16 0 0
FLAG -96 304 0
FLAG 464 144 OUT
FLAG 464 256 0
FLAG -336 96 +V
FLAG -336 208 0
FLAG -208 96 -V
FLAG -208 208 0
FLAG 240 208 -V
FLAG -96 192 IN
FLAG 240 80 +V
SYMBOL res 256 -16 R90
WINDOW 0 0 56 VBottom 2
WINDOW 3 32 56 VTop 2
SYMATTR InstName R1
SYMATTR Value 10K
SYMBOL res 16 16 R270
WINDOW 0 32 56 VTop 2
WINDOW 3 0 56 VBottom 2
SYMATTR InstName R2
SYMATTR Value 10K
SYMBOL voltage -96 192 R0
WINDOW 123 24 146 Left 2
WINDOW 39 24 125 Left 2
SYMATTR InstName Vin1
SYMATTR Value SINE(0 1 10K)
SYMBOL res 448 144 R0
SYMATTR InstName Rload
SYMATTR Value 1K
SYMBOL voltage -336 96 R0
WINDOW 123 0 0 Left 2
WINDOW 39 0 0 Left 2
SYMATTR InstName V1
SYMATTR Value 5
SYMBOL voltage -208 96 R0
WINDOW 123 24 146 Left 2
WINDOW 39 24 125 Left 2
SYMATTR InstName V2
SYMATTR Value -5
SYMBOL res 112 96 R90
WINDOW 0 0 56 VBottom 2
WINDOW 3 32 56 VTop 2
SYMATTR InstName R3
SYMATTR Value 1K
SYMBOL ADA4530 208 80 R0
SYMATTR InstName U1
TEXT 352 296 Left 2 !.tran 1m
