Version 4
SHEET 1 980 680
WIRE 176 -112 176 -128
WIRE 272 -112 272 -128
WIRE 352 -112 352 -128
WIRE 176 -16 176 -32
WIRE 272 -16 272 -48
WIRE 272 -16 176 -16
WIRE 176 32 176 -16
WIRE 352 32 352 -32
WIRE 80 64 48 64
WIRE 464 96 432 96
WIRE 640 96 464 96
WIRE 704 96 640 96
WIRE 752 96 704 96
WIRE -96 128 -128 128
WIRE 80 128 -16 128
WIRE 752 128 752 96
WIRE 464 144 464 96
WIRE 464 144 432 144
WIRE 512 144 464 144
WIRE 640 144 640 96
WIRE 512 176 512 144
WIRE -128 192 -128 128
WIRE 80 192 -128 192
WIRE 640 240 640 208
WIRE 752 240 752 208
WIRE -64 256 -80 256
WIRE 80 256 16 256
WIRE 512 272 512 256
WIRE 512 272 432 272
WIRE 512 288 512 272
WIRE -128 320 -128 192
WIRE -80 320 -128 320
WIRE 80 320 -80 320
WIRE -128 352 -128 320
WIRE 512 384 512 368
WIRE -128 448 -128 432
FLAG 512 384 0
FLAG -128 448 0
FLAG 48 64 0
FLAG 176 -128 0
FLAG 352 -128 0
FLAG 752 240 0
FLAG 640 240 0
FLAG 272 -128 0
FLAG -80 256 0
FLAG -80 320 In
FLAG 704 96 Out
SYMBOL voltage -128 336 R0
WINDOW 123 0 0 Left 0
WINDOW 39 0 0 Left 0
SYMATTR InstName V1
SYMATTR Value -5
SYMBOL res 160 -128 R0
SYMATTR InstName R1
SYMATTR Value 33.2k
SYMBOL res 336 -128 R0
SYMATTR InstName R2
SYMATTR Value 3.75k
SYMBOL res 496 160 R0
SYMATTR InstName R3
SYMATTR Value {Rfast}
SYMBOL res 496 272 R0
SYMATTR InstName R4
SYMATTR Value 50k
SYMBOL res 0 112 R90
WINDOW 0 0 56 VBottom 2
WINDOW 3 32 56 VTop 2
SYMATTR InstName R5
SYMATTR Value 100k
SYMBOL res 736 112 R0
SYMATTR InstName R6
SYMATTR Value 6.64
SYMBOL cap 624 144 R0
SYMATTR InstName C1
SYMATTR Value 10µ
SYMATTR SpiceLine Rser=10m Lser=1b
SYMBOL cap 256 -112 R0
SYMATTR InstName C2
SYMATTR Value 4.7µ
SYMBOL res 32 240 R90
WINDOW 0 0 56 VBottom 2
WINDOW 3 32 56 VTop 2
SYMATTR InstName R7
SYMATTR Value 100k
SYMBOL LT3094 256 144 R0
SYMATTR InstName U1
TEXT 544 464 Left 2 !.tran 1 startup
TEXT 592 296 Left 2 !.param Rfast 450k\n.step param Rfast list 450k 450m
