Version 4
SHEET 1 1340 1284
WIRE -32 -1152 -144 -1152
WIRE 464 -1152 -32 -1152
WIRE -144 -1136 -144 -1152
WIRE -32 -1072 -32 -1152
WIRE 16 -1072 -32 -1072
WIRE 464 -1072 464 -1152
WIRE 464 -1072 336 -1072
WIRE -144 -1024 -144 -1056
WIRE 464 -976 464 -1072
WIRE 16 -960 -16 -960
WIRE 416 -960 336 -960
WIRE 16 -848 -48 -848
WIRE 464 -848 464 -880
WIRE 464 -848 336 -848
WIRE 688 -848 464 -848
WIRE 688 -832 688 -848
WIRE 464 -816 464 -848
WIRE 688 -752 688 -768
WIRE -48 -736 -48 -848
WIRE 16 -736 -48 -736
WIRE 416 -736 336 -736
WIRE -128 -624 -160 -624
WIRE -48 -624 -48 -736
WIRE -48 -624 -64 -624
WIRE 16 -624 -48 -624
WIRE 368 -624 336 -624
WIRE 496 -624 368 -624
WIRE 608 -624 560 -624
WIRE 656 -624 608 -624
WIRE -48 -608 -48 -624
WIRE 368 -608 368 -624
WIRE -48 -512 -48 -528
WIRE 16 -512 -48 -512
WIRE 368 -512 368 -544
WIRE 368 -512 336 -512
WIRE 464 -512 464 -720
WIRE 464 -512 368 -512
WIRE 656 -512 464 -512
WIRE 464 -480 464 -512
WIRE -96 -400 -128 -400
WIRE 16 -400 -16 -400
WIRE 416 -400 336 -400
WIRE 464 -352 464 -384
WIRE -80 -288 -112 -288
WIRE 16 -288 -16 -288
WIRE 656 -288 656 -512
WIRE 656 -288 336 -288
WIRE 656 -272 656 -288
WIRE -144 -224 -160 -224
WIRE 0 -224 -80 -224
WIRE -160 -176 -160 -224
WIRE -160 -176 -176 -176
WIRE -96 -176 -160 -176
WIRE 0 -176 0 -224
WIRE 0 -176 -16 -176
WIRE 16 -176 0 -176
WIRE 656 -176 656 -192
WIRE 656 -176 336 -176
WIRE 656 -160 656 -176
WIRE -192 -112 -272 -112
WIRE 0 -112 -128 -112
WIRE 0 -64 0 -112
WIRE 16 -64 0 -64
WIRE 368 -64 336 -64
WIRE -272 -48 -272 -112
WIRE -272 -48 -304 -48
WIRE -256 -48 -272 -48
WIRE -128 -48 -192 -48
WIRE 0 -48 0 -64
WIRE 0 -48 -48 -48
WIRE 656 -48 656 -80
WIRE 656 -48 480 -48
WIRE 480 -32 480 -48
WIRE -192 16 -272 16
WIRE 0 16 -128 16
WIRE 0 48 0 16
WIRE 16 48 0 48
WIRE 432 48 336 48
WIRE -272 64 -272 16
WIRE -272 64 -304 64
WIRE -256 64 -272 64
WIRE -128 64 -192 64
WIRE 0 64 0 48
WIRE 0 64 -48 64
WIRE 480 96 480 64
WIRE -272 160 -320 160
WIRE -160 160 -192 160
WIRE 16 160 -160 160
WIRE 368 160 336 160
WIRE 448 160 368 160
WIRE 544 160 512 160
WIRE 368 176 368 160
WIRE -272 272 -320 272
WIRE -64 272 -192 272
WIRE 16 272 -64 272
WIRE 368 272 368 240
WIRE 368 272 336 272
WIRE 656 272 656 -48
WIRE 656 272 368 272
WIRE -64 288 -64 272
WIRE -160 336 -160 160
WIRE 656 368 656 272
WIRE -64 384 -64 368
WIRE 16 384 -64 384
WIRE 608 384 336 384
WIRE -160 432 -160 416
WIRE -64 432 -64 384
WIRE -64 432 -160 432
WIRE -64 496 -64 432
WIRE 16 496 -64 496
WIRE 656 496 656 464
WIRE 656 496 336 496
WIRE 656 512 656 496
WIRE -32 608 -192 608
WIRE 16 608 -32 608
WIRE 656 608 656 592
WIRE 656 608 336 608
WIRE 784 608 656 608
WIRE 928 608 784 608
WIRE 784 624 784 608
WIRE 928 624 928 608
WIRE -32 688 -32 672
WIRE 176 688 176 656
WIRE 784 704 784 688
WIRE 928 720 928 704
WIRE -64 736 -64 496
WIRE 656 736 656 608
WIRE 656 736 -64 736
FLAG -144 -1024 0
FLAG 688 -752 0
FLAG 928 608 Out
FLAG 480 96 0
FLAG 464 -352 0
FLAG 368 -64 0
FLAG -32 688 0
FLAG -320 272 0
FLAG -304 -48 0
FLAG -304 64 0
FLAG -176 -176 0
FLAG -112 -288 0
FLAG -128 -400 0
FLAG -16 -960 0
FLAG 176 688 0
FLAG 784 704 0
FLAG -192 608 GateVcc
FLAG 544 160 GateVcc
FLAG 608 -624 GateVcc
FLAG -160 -624 0
FLAG -320 160 0
FLAG -144 -1152 IN
FLAG 928 720 0
SYMBOL voltage -144 -1152 R0
SYMATTR InstName V1
SYMATTR Value 12
SYMBOL nmos 416 -880 M180
SYMATTR InstName M1
SYMATTR Value NTMFS5C646NL
SYMBOL cap 672 -832 R0
SYMATTR InstName C1
SYMATTR Value 440µ
SYMBOL nmos 416 -816 R0
SYMATTR InstName M2
SYMATTR Value BSC032NE2LS
SYMBOL nmos 432 -32 R0
SYMATTR InstName M4
SYMATTR Value BSC032NE2LS
SYMBOL cap 352 -608 R0
SYMATTR InstName C3
SYMATTR Value 220n
SYMBOL res 640 496 R0
SYMATTR InstName R11
SYMATTR Value 2m
SYMBOL ind 640 -176 R0
SYMATTR InstName L1
SYMATTR Value 4.7µ
SYMBOL nmos 416 -480 R0
SYMATTR InstName M3
SYMATTR Value BSC032NE2LS
SYMBOL res 640 -288 R0
SYMATTR InstName R4
SYMATTR Value 2m
SYMBOL cap -48 608 R0
WINDOW 0 24 16 Left 2
SYMATTR InstName C11
SYMATTR Value 1µ
SYMBOL nmos 608 464 M180
WINDOW 0 68 66 Left 2
WINDOW 3 64 28 Left 2
SYMATTR InstName M5
SYMATTR Value BSC032NE2LS
SYMBOL res -48 384 R180
WINDOW 0 36 76 Left 2
WINDOW 3 36 40 Left 2
SYMATTR InstName R10
SYMATTR Value 100k
SYMBOL res -176 256 R90
WINDOW 0 0 56 VBottom 2
WINDOW 3 32 56 VTop 2
SYMATTR InstName R8
SYMATTR Value 14.3k
SYMBOL res -32 -64 R90
WINDOW 0 0 56 VBottom 2
WINDOW 3 32 56 VTop 2
SYMATTR InstName R5
SYMATTR Value 2.61k
SYMBOL res -32 48 R90
WINDOW 0 0 56 VBottom 2
WINDOW 3 32 56 VTop 2
SYMATTR InstName R6
SYMATTR Value 60.4k
SYMBOL cap -192 -64 R90
WINDOW 0 0 32 VBottom 2
WINDOW 3 32 32 VTop 2
SYMATTR InstName C7
SYMATTR Value 6.8n
SYMBOL cap -192 48 R90
WINDOW 0 0 32 VBottom 2
WINDOW 3 32 32 VTop 2
SYMATTR InstName C9
SYMATTR Value 2.2n
SYMBOL cap -128 -128 R90
WINDOW 0 0 32 VBottom 2
WINDOW 3 32 32 VTop 2
SYMATTR InstName C6
SYMATTR Value 820p
SYMBOL cap -128 0 R90
WINDOW 0 0 32 VBottom 2
WINDOW 3 32 32 VTop 2
SYMATTR InstName C8
SYMATTR Value 220p
SYMBOL res 0 -192 R90
WINDOW 0 0 56 VBottom 2
WINDOW 3 32 56 VTop 2
SYMATTR InstName R3
SYMATTR Value 64.9k
SYMBOL cap -16 -304 R90
WINDOW 0 0 32 VBottom 2
WINDOW 3 32 32 VTop 2
SYMATTR InstName C4
SYMATTR Value 2n
SYMBOL res 0 -416 R90
WINDOW 0 0 56 VBottom 2
WINDOW 3 32 56 VTop 2
SYMATTR InstName R2
SYMATTR Value 46.4k
SYMBOL cap 768 624 R0
SYMATTR InstName C12
SYMATTR Value 960µ
SYMATTR SpiceLine Rser=100m Cpar=44u
SYMBOL diode 512 144 R90
WINDOW 0 0 32 VBottom 2
WINDOW 3 32 32 VTop 2
SYMATTR InstName D2
SYMATTR Value MURS120
SYMBOL diode 560 -640 R90
WINDOW 0 0 32 VBottom 2
WINDOW 3 32 32 VTop 2
SYMATTR InstName D1
SYMATTR Value MURS120
SYMBOL cap 352 176 R0
SYMATTR InstName C10
SYMATTR Value 220n
SYMBOL cap -64 -640 R90
WINDOW 0 0 32 VBottom 2
WINDOW 3 32 32 VTop 2
SYMATTR InstName C2
SYMATTR Value 1µ
SYMBOL res -64 -624 R0
SYMATTR InstName R1
SYMATTR Value 10k
SYMBOL LT8210 176 -240 R0
SYMATTR InstName U1
SYMBOL res -144 432 R180
WINDOW 0 36 76 Left 2
WINDOW 3 36 40 Left 2
SYMATTR InstName R9
SYMATTR Value 100k
SYMBOL res -176 144 R90
WINDOW 0 0 56 VBottom 2
WINDOW 3 32 56 VTop 2
SYMATTR InstName R7
SYMATTR Value 6.65k
SYMBOL cap -80 -240 R90
WINDOW 0 0 32 VBottom 2
WINDOW 3 32 32 VTop 2
SYMATTR InstName C5
SYMATTR Value 15n
SYMBOL res 912 608 R0
SYMATTR InstName Rload
SYMATTR Value 2
TEXT 904 792 Left 2 !.tran 10m startup
