Version 4
SHEET 1 1884 932
WIRE 224 -832 -304 -832
WIRE 224 -784 224 -832
WIRE 400 -784 400 -816
WIRE 624 -656 496 -656
WIRE 544 -608 496 -608
WIRE 544 -576 544 -608
WIRE 544 -576 496 -576
WIRE 544 -560 544 -576
WIRE 224 -512 224 -528
WIRE 400 -480 400 -528
WIRE -304 -400 -304 -832
WIRE 144 -400 -304 -400
WIRE 144 -352 144 -400
WIRE 400 -352 400 -384
WIRE 624 -224 496 -224
WIRE 544 -176 496 -176
WIRE 544 -144 544 -176
WIRE 544 -144 496 -144
WIRE 544 -128 544 -144
WIRE 144 -80 144 -96
WIRE 400 -48 400 -96
WIRE -304 32 -304 -400
WIRE 48 32 -304 32
WIRE -304 48 -304 32
WIRE 48 80 48 32
WIRE 400 80 400 48
WIRE -304 144 -304 128
WIRE 624 208 496 208
WIRE -256 224 -256 208
WIRE -128 224 -128 208
WIRE 544 256 496 256
WIRE 544 288 544 256
WIRE 544 288 496 288
WIRE 544 304 544 288
WIRE -256 320 -256 304
WIRE -128 320 -128 304
WIRE 48 352 48 336
WIRE 400 384 400 336
FLAG -256 320 0
FLAG -128 320 0
FLAG -256 208 V+
FLAG -128 208 V-
FLAG 400 48 V+
FLAG 400 384 V-
FLAG 544 304 0
FLAG 48 352 0
FLAG 400 -384 V+
FLAG 400 -48 V-
FLAG 544 -128 0
FLAG 144 -80 0
FLAG 400 -816 V+
FLAG 400 -480 V-
FLAG 544 -560 0
FLAG 224 -512 0
FLAG -304 144 0
SYMBOL LT1997-1 272 208 R0
SYMATTR InstName U1
SYMBOL voltage -256 208 R0
SYMATTR InstName V1
SYMATTR Value 15
SYMBOL voltage -128 208 R0
SYMATTR InstName V2
SYMATTR Value -15
SYMBOL LT1997-1 272 -224 R0
SYMATTR InstName U2
SYMBOL LT1997-1 272 -656 R0
SYMATTR InstName U3
SYMBOL voltage -304 32 R0
SYMATTR InstName V3
SYMATTR Value ac 1
TEXT 536 408 Left 2 !.ac oct 10 1K 2Meg
TEXT 1024 -264 Left 2 !.param foobar=7 nix=2.5 m=3
TEXT 944 -608 Left 2 !;.step param C list 1 4\n.param C=2
TEXT 1536 -336 Left 2 !.step param foobar list 4 6 8
TEXT 1592 -272 Left 2 ;.step param nix list 4 6 8
TEXT 1440 -416 Left 2 ;.step param C list .5 1 2
TEXT 1376 -560 Left 2 ;.step param m list .5 1 2
