Version 4
SHEET 1 1556 932
WIRE 48 32 -304 32
WIRE -304 48 -304 32
WIRE 48 80 48 32
WIRE 400 80 400 48
WIRE -304 144 -304 128
WIRE 624 208 496 208
WIRE 736 208 688 208
WIRE -256 224 -256 208
WIRE -128 224 -128 208
WIRE 544 256 496 256
WIRE 544 288 544 256
WIRE 544 288 496 288
WIRE 544 304 544 288
WIRE -256 320 -256 304
WIRE -128 320 -128 304
WIRE 48 352 48 336
WIRE 400 384 400 336
FLAG -256 320 0
FLAG -128 320 0
FLAG -256 208 V+
FLAG -128 208 V-
FLAG 400 48 V+
FLAG 400 384 V-
FLAG 544 304 0
FLAG 48 352 0
FLAG -304 144 0
FLAG 736 208 0
SYMBOL LT1997-1 272 208 R0
SYMATTR InstName U1
SYMBOL voltage -256 208 R0
SYMATTR InstName V1
SYMATTR Value 15
SYMBOL voltage -128 208 R0
SYMATTR InstName V2
SYMATTR Value -15
SYMBOL voltage -304 32 R0
SYMATTR InstName V3
SYMATTR Value ac 1
SYMBOL cap 688 192 R90
WINDOW 0 0 32 VBottom 2
WINDOW 3 32 32 VTop 2
SYMATTR InstName C1
SYMATTR Value {load}
TEXT 536 408 Left 2 !.ac oct 100 1K 10Meg
TEXT 224 -112 Left 2 !.step param load list 0 270p 560p 1000p 1800p
